len.pdb
 OpenBabel10072519253D

 32 34  0  0  1  0  0  0  0  0999 V2000
   82.3650   83.3410   72.4990 C   0  0  2  0  0  0  0  0  0  0  0  0
   83.2980   84.6570   74.4050 N   0  0  0  0  0  0  0  0  0  0  0  0
   81.9260   82.3880   69.8740 O   0  0  0  0  0  0  0  0  0  0  0  0
   81.0490   83.2700   73.3210 C   0  0  0  0  0  0  0  0  0  0  0  0
   82.6960   82.0680   72.0060 N   0  0  0  0  0  0  0  0  0  0  0  0
   84.5770   84.2470   72.6890 O   0  0  0  0  0  0  0  0  0  0  0  0
   80.8700   84.4260   74.3210 C   0  0  0  0  0  0  0  0  0  0  0  0
   84.4920   78.2230   73.4280 N   0  0  0  0  0  0  0  0  0  0  0  0
   82.0060   85.0330   76.2910 O   0  0  0  0  0  0  0  0  0  0  0  0
   82.1050   84.7550   75.0960 C   0  0  0  0  0  0  0  0  0  0  0  0
   83.4860   84.0730   73.2340 C   0  0  0  0  0  0  0  0  0  0  0  0
   82.8000   80.2150   70.6860 C   0  0  0  0  0  0  0  0  0  0  0  0
   83.3340   79.8770   71.9520 C   0  0  0  0  0  0  0  0  0  0  0  0
   83.3490   81.1150   72.8840 C   0  0  0  0  0  0  0  0  0  0  0  0
   82.2920   81.5900   70.7880 C   0  0  0  0  0  0  0  0  0  0  0  0
   83.5240   78.1390   69.7760 C   0  0  0  0  0  0  0  0  0  0  0  0
   84.0890   77.8250   71.0190 C   0  0  0  0  0  0  0  0  0  0  0  0
   83.9430   78.6370   72.1820 C   0  0  0  0  0  0  0  0  0  0  0  0
   82.8980   79.3560   69.5780 C   0  0  0  0  0  0  0  0  0  0  0  0
   82.2220   84.1440   71.7640 H   0  0  0  0  0  0  0  0  0  0  0  0
   84.1320   84.8950   74.9300 H   0  0  0  0  0  0  0  0  0  0  0  0
   83.5600   77.4130   68.9690 H   0  0  0  0  0  0  0  0  0  0  0  0
   84.7210   76.9480   71.1260 H   0  0  0  0  0  0  0  0  0  0  0  0
   82.5470   79.6530   68.5940 H   0  0  0  0  0  0  0  0  0  0  0  0
   84.3700   81.4500   73.1030 H   0  0  0  0  0  0  0  0  0  0  0  0
   82.9140   80.9700   73.8810 H   0  0  0  0  0  0  0  0  0  0  0  0
   84.4480   78.8800   74.1960 H   0  0  0  0  0  0  0  0  0  0  0  0
   85.0690   77.3940   73.4890 H   0  0  0  0  0  0  0  0  0  0  0  0
   80.9060   82.3890   73.9610 H   0  0  0  0  0  0  0  0  0  0  0  0
   80.2290   83.1740   72.5970 H   0  0  0  0  0  0  0  0  0  0  0  0
   80.0480   84.1760   75.0050 H   0  0  0  0  0  0  0  0  0  0  0  0
   80.6990   85.3480   73.7490 H   0  0  0  0  0  0  0  0  0  0  0  0
  1 20  1  6  0  0  0
  1 11  1  0  0  0  0
  1  4  1  0  0  0  0
  2 21  1  0  0  0  0
  2 10  1  0  0  0  0
  3 15  2  0  0  0  0
  4 29  1  0  0  0  0
  4  7  1  0  0  0  0
  5  1  1  0  0  0  0
  5 14  1  0  0  0  0
  6 11  2  0  0  0  0
  7 31  1  0  0  0  0
  7 10  1  0  0  0  0
  8 28  1  0  0  0  0
  8 27  1  0  0  0  0
 10  9  2  0  0  0  0
 11  2  1  0  0  0  0
 12 15  1  0  0  0  0
 12 13  1  0  0  0  0
 13 18  2  0  0  0  0
 13 14  1  0  0  0  0
 14 25  1  0  0  0  0
 14 26  1  0  0  0  0
 15  5  1  0  0  0  0
 16 17  2  0  0  0  0
 17 23  1  0  0  0  0
 17 18  1  0  0  0  0
 18  8  1  0  0  0  0
 19 16  1  0  0  0  0
 19 12  2  0  0  0  0
 22 16  1  0  0  0  0
 24 19  1  0  0  0  0
 30  4  1  0  0  0  0
 32  7  1  0  0  0  0
M  END
$$$$
