len.pdb
 OpenBabel10072519073D

 32 34  0  0  1  0  0  0  0  0999 V2000
   81.3100   75.4760   75.3150 C   0  0  2  0  0  0  0  0  0  0  0  0
   82.3330   76.9890   76.9490 N   0  0  0  0  0  0  0  0  0  0  0  0
   81.2210   74.3370   72.4260 O   0  0  0  0  0  0  0  0  0  0  0  0
   79.9350   75.4960   76.0790 C   0  0  0  0  0  0  0  0  0  0  0  0
   81.6390   74.1410   74.8130 N   0  0  0  0  0  0  0  0  0  0  0  0
   83.6000   76.2650   75.2700 O   0  0  0  0  0  0  0  0  0  0  0  0
   79.8120   76.9100   76.7120 C   0  0  0  0  0  0  0  0  0  0  0  0
   83.4830   70.5110   76.2860 N   0  0  0  0  0  0  0  0  0  0  0  0
   81.1290   78.0080   78.4780 O   0  0  0  0  0  0  0  0  0  0  0  0
   81.1580   77.3840   77.4450 C   0  0  0  0  0  0  0  0  0  0  0  0
   82.4820   76.2980   75.8260 C   0  0  0  0  0  0  0  0  0  0  0  0
   82.1940   72.3880   73.3500 C   0  0  0  0  0  0  0  0  0  0  0  0
   82.5690   72.0810   74.6850 C   0  0  0  0  0  0  0  0  0  0  0  0
   82.1490   73.1490   75.6510 C   0  0  0  0  0  0  0  0  0  0  0  0
   81.6230   73.7280   73.4060 C   0  0  0  0  0  0  0  0  0  0  0  0
   83.3100   70.3730   72.5560 C   0  0  0  0  0  0  0  0  0  0  0  0
   83.5230   70.0070   73.8910 C   0  0  0  0  0  0  0  0  0  0  0  0
   83.2320   70.8370   74.9330 C   0  0  0  0  0  0  0  0  0  0  0  0
   82.5910   71.5130   72.2880 C   0  0  0  0  0  0  0  0  0  0  0  0
   81.1230   76.0880   74.4210 H   0  0  0  0  0  0  0  0  0  0  0  0
   83.1320   77.5290   77.2590 H   0  0  0  0  0  0  0  0  0  0  0  0
   83.6090   69.6260   71.8270 H   0  0  0  0  0  0  0  0  0  0  0  0
   84.0050   69.0630   74.1280 H   0  0  0  0  0  0  0  0  0  0  0  0
   82.5350   71.9440   71.2920 H   0  0  0  0  0  0  0  0  0  0  0  0
   82.8800   73.5430   76.3690 H   0  0  0  0  0  0  0  0  0  0  0  0
   81.3380   72.7540   76.2740 H   0  0  0  0  0  0  0  0  0  0  0  0
   83.5620   71.2030   77.0190 H   0  0  0  0  0  0  0  0  0  0  0  0
   83.8980   69.6040   76.4550 H   0  0  0  0  0  0  0  0  0  0  0  0
   79.9060   74.6930   76.8270 H   0  0  0  0  0  0  0  0  0  0  0  0
   79.1950   75.3470   75.2820 H   0  0  0  0  0  0  0  0  0  0  0  0
   78.8780   76.9800   77.2830 H   0  0  0  0  0  0  0  0  0  0  0  0
   79.9080   77.6010   75.8640 H   0  0  0  0  0  0  0  0  0  0  0  0
  1 20  1  6  0  0  0
  1 11  1  0  0  0  0
  1  4  1  0  0  0  0
  2 21  1  0  0  0  0
  2 10  1  0  0  0  0
  3 15  2  0  0  0  0
  4  7  1  0  0  0  0
  4 29  1  0  0  0  0
  5  1  1  0  0  0  0
  5 14  1  0  0  0  0
  6 11  2  0  0  0  0
  7 31  1  0  0  0  0
  7 10  1  0  0  0  0
  8 28  1  0  0  0  0
  8 27  1  0  0  0  0
 10  9  2  0  0  0  0
 11  2  1  0  0  0  0
 12 15  1  0  0  0  0
 12 13  1  0  0  0  0
 13 18  2  0  0  0  0
 13 14  1  0  0  0  0
 14 26  1  0  0  0  0
 14 25  1  0  0  0  0
 15  5  1  0  0  0  0
 16 17  2  0  0  0  0
 17 23  1  0  0  0  0
 17 18  1  0  0  0  0
 18  8  1  0  0  0  0
 19 16  1  0  0  0  0
 19 12  2  0  0  0  0
 22 16  1  0  0  0  0
 24 19  1  0  0  0  0
 30  4  1  0  0  0  0
 32  7  1  0  0  0  0
M  END
$$$$
