len.pdb
 OpenBabel10072519093D

 32 34  0  0  1  0  0  0  0  0999 V2000
   80.8250   75.7320   75.0610 C   0  0  2  0  0  0  0  0  0  0  0  0
   81.7110   76.7580   77.1230 N   0  0  0  0  0  0  0  0  0  0  0  0
   80.5570   74.8540   72.3260 O   0  0  0  0  0  0  0  0  0  0  0  0
   79.4810   75.7510   75.7900 C   0  0  0  0  0  0  0  0  0  0  0  0
   80.9500   74.3450   74.5610 N   0  0  0  0  0  0  0  0  0  0  0  0
   83.1820   76.1510   75.5550 O   0  0  0  0  0  0  0  0  0  0  0  0
   79.3480   76.9910   76.7240 C   0  0  0  0  0  0  0  0  0  0  0  0
   82.1910   70.2610   75.6800 N   0  0  0  0  0  0  0  0  0  0  0  0
   80.5070   77.7810   78.6690 O   0  0  0  0  0  0  0  0  0  0  0  0
   80.5360   77.2600   77.5870 C   0  0  0  0  0  0  0  0  0  0  0  0
   82.0060   76.2920   75.8530 C   0  0  0  0  0  0  0  0  0  0  0  0
   81.1270   72.6110   73.0410 C   0  0  0  0  0  0  0  0  0  0  0  0
   81.5320   72.1160   74.3040 C   0  0  0  0  0  0  0  0  0  0  0  0
   81.5140   73.1880   75.3990 C   0  0  0  0  0  0  0  0  0  0  0  0
   80.7870   74.0580   73.1990 C   0  0  0  0  0  0  0  0  0  0  0  0
   81.2380   70.3780   72.0540 C   0  0  0  0  0  0  0  0  0  0  0  0
   81.6580   69.8910   73.3070 C   0  0  0  0  0  0  0  0  0  0  0  0
   81.8190   70.7700   74.4480 C   0  0  0  0  0  0  0  0  0  0  0  0
   80.8650   71.7590   71.8860 C   0  0  0  0  0  0  0  0  0  0  0  0
   80.6840   76.4880   74.2770 H   0  0  0  0  0  0  0  0  0  0  0  0
   82.5700   76.9460   77.6270 H   0  0  0  0  0  0  0  0  0  0  0  0
   81.1460   69.6490   71.2540 H   0  0  0  0  0  0  0  0  0  0  0  0
   81.8650   68.8270   73.3750 H   0  0  0  0  0  0  0  0  0  0  0  0
   80.5440   72.2820   70.9900 H   0  0  0  0  0  0  0  0  0  0  0  0
   82.5380   73.4150   75.7230 H   0  0  0  0  0  0  0  0  0  0  0  0
   80.8810   72.8070   76.2110 H   0  0  0  0  0  0  0  0  0  0  0  0
   81.6690   70.5710   76.4890 H   0  0  0  0  0  0  0  0  0  0  0  0
   82.4180   69.2770   75.7400 H   0  0  0  0  0  0  0  0  0  0  0  0
   79.3020   74.8280   76.3560 H   0  0  0  0  0  0  0  0  0  0  0  0
   78.7290   75.6580   74.9960 H   0  0  0  0  0  0  0  0  0  0  0  0
   78.4510   76.8790   77.3480 H   0  0  0  0  0  0  0  0  0  0  0  0
   79.1450   77.8870   76.1230 H   0  0  0  0  0  0  0  0  0  0  0  0
  1 20  1  6  0  0  0
  1  4  1  0  0  0  0
  1 11  1  0  0  0  0
  2 10  1  0  0  0  0
  2 21  1  0  0  0  0
  3 15  2  0  0  0  0
  4 29  1  0  0  0  0
  4  7  1  0  0  0  0
  5  1  1  0  0  0  0
  5 14  1  0  0  0  0
  6 11  2  0  0  0  0
  7 31  1  0  0  0  0
  7 10  1  0  0  0  0
  8 28  1  0  0  0  0
  8 27  1  0  0  0  0
 10  9  2  0  0  0  0
 11  2  1  0  0  0  0
 12 15  1  0  0  0  0
 12 13  1  0  0  0  0
 13 18  2  0  0  0  0
 13 14  1  0  0  0  0
 14 25  1  0  0  0  0
 14 26  1  0  0  0  0
 15  5  1  0  0  0  0
 16 17  2  0  0  0  0
 17 23  1  0  0  0  0
 17 18  1  0  0  0  0
 18  8  1  0  0  0  0
 19 16  1  0  0  0  0
 19 12  2  0  0  0  0
 22 16  1  0  0  0  0
 24 19  1  0  0  0  0
 30  4  1  0  0  0  0
 32  7  1  0  0  0  0
M  END
$$$$
