len.pdb
 OpenBabel10072519143D

 32 34  0  0  1  0  0  0  0  0999 V2000
   80.9530   76.9910   75.9600 C   0  0  2  0  0  0  0  0  0  0  0  0
   82.0160   78.3120   77.7590 N   0  0  0  0  0  0  0  0  0  0  0  0
   80.7080   76.1350   73.1950 O   0  0  0  0  0  0  0  0  0  0  0  0
   79.5800   77.1840   76.6510 C   0  0  0  0  0  0  0  0  0  0  0  0
   81.0050   75.6030   75.4610 N   0  0  0  0  0  0  0  0  0  0  0  0
   83.3610   77.2660   76.3430 O   0  0  0  0  0  0  0  0  0  0  0  0
   79.5550   78.4830   77.4840 C   0  0  0  0  0  0  0  0  0  0  0  0
   82.7100   71.6840   76.4430 N   0  0  0  0  0  0  0  0  0  0  0  0
   80.8110   79.3650   79.2720 O   0  0  0  0  0  0  0  0  0  0  0  0
   80.8330   78.7700   78.2410 C   0  0  0  0  0  0  0  0  0  0  0  0
   82.2300   77.5050   76.7000 C   0  0  0  0  0  0  0  0  0  0  0  0
   81.3960   73.9630   73.9390 C   0  0  0  0  0  0  0  0  0  0  0  0
   81.7220   73.5140   75.1940 C   0  0  0  0  0  0  0  0  0  0  0  0
   81.6580   74.5230   76.2790 C   0  0  0  0  0  0  0  0  0  0  0  0
   80.9890   75.3500   74.0670 C   0  0  0  0  0  0  0  0  0  0  0  0
   81.9950   71.9360   72.8530 C   0  0  0  0  0  0  0  0  0  0  0  0
   82.3470   71.4820   74.0890 C   0  0  0  0  0  0  0  0  0  0  0  0
   82.2610   72.2300   75.2900 C   0  0  0  0  0  0  0  0  0  0  0  0
   81.4510   73.2540   72.7580 C   0  0  0  0  0  0  0  0  0  0  0  0
   80.8590   77.6780   75.1080 H   0  0  0  0  0  0  0  0  0  0  0  0
   82.7690   78.5900   78.3770 H   0  0  0  0  0  0  0  0  0  0  0  0
   82.0000   71.2550   72.0070 H   0  0  0  0  0  0  0  0  0  0  0  0
   82.7790   70.4870   74.1380 H   0  0  0  0  0  0  0  0  0  0  0  0
   81.1420   73.6890   71.8120 H   0  0  0  0  0  0  0  0  0  0  0  0
   82.6450   74.7920   76.6760 H   0  0  0  0  0  0  0  0  0  0  0  0
   80.8740   74.2280   76.9880 H   0  0  0  0  0  0  0  0  0  0  0  0
   82.4940   72.1270   77.3270 H   0  0  0  0  0  0  0  0  0  0  0  0
   83.1110   70.7560   76.4480 H   0  0  0  0  0  0  0  0  0  0  0  0
   79.3580   76.3350   77.3110 H   0  0  0  0  0  0  0  0  0  0  0  0
   78.7760   77.2110   75.9030 H   0  0  0  0  0  0  0  0  0  0  0  0
   78.6460   78.5220   78.0990 H   0  0  0  0  0  0  0  0  0  0  0  0
   79.4150   79.3880   76.8800 H   0  0  0  0  0  0  0  0  0  0  0  0
  1 20  1  6  0  0  0
  1  4  1  0  0  0  0
  1 11  1  0  0  0  0
  2 10  1  0  0  0  0
  2 21  1  0  0  0  0
  3 15  2  0  0  0  0
  4 29  1  0  0  0  0
  4  7  1  0  0  0  0
  5  1  1  0  0  0  0
  5 14  1  0  0  0  0
  6 11  2  0  0  0  0
  7 31  1  0  0  0  0
  7 10  1  0  0  0  0
  8 28  1  0  0  0  0
  8 27  1  0  0  0  0
 10  9  2  0  0  0  0
 11  2  1  0  0  0  0
 12 15  1  0  0  0  0
 12 13  1  0  0  0  0
 13 18  2  0  0  0  0
 13 14  1  0  0  0  0
 14 25  1  0  0  0  0
 14 26  1  0  0  0  0
 15  5  1  0  0  0  0
 16 17  2  0  0  0  0
 17 23  1  0  0  0  0
 17 18  1  0  0  0  0
 18  8  1  0  0  0  0
 19 16  1  0  0  0  0
 19 12  2  0  0  0  0
 22 16  1  0  0  0  0
 24 19  1  0  0  0  0
 30  4  1  0  0  0  0
 32  7  1  0  0  0  0
M  END
$$$$
