len.pdb
 OpenBabel10072519183D

 32 34  0  0  1  0  0  0  0  0999 V2000
   82.3460   79.9720   74.4180 C   0  0  2  0  0  0  0  0  0  0  0  0
   83.4950   81.2480   76.1680 N   0  0  0  0  0  0  0  0  0  0  0  0
   81.8250   79.1070   71.5240 O   0  0  0  0  0  0  0  0  0  0  0  0
   81.2080   79.8790   75.4730 C   0  0  0  0  0  0  0  0  0  0  0  0
   82.6170   78.6890   73.7250 N   0  0  0  0  0  0  0  0  0  0  0  0
   84.6780   80.7020   74.3950 O   0  0  0  0  0  0  0  0  0  0  0  0
   81.0230   81.1770   76.3340 C   0  0  0  0  0  0  0  0  0  0  0  0
   84.2680   74.8750   74.8360 N   0  0  0  0  0  0  0  0  0  0  0  0
   82.4480   82.1250   78.0060 O   0  0  0  0  0  0  0  0  0  0  0  0
   82.3840   81.5950   76.9280 C   0  0  0  0  0  0  0  0  0  0  0  0
   83.5780   80.7070   74.9530 C   0  0  0  0  0  0  0  0  0  0  0  0
   82.7670   76.9250   72.1720 C   0  0  0  0  0  0  0  0  0  0  0  0
   83.2540   76.5840   73.4670 C   0  0  0  0  0  0  0  0  0  0  0  0
   83.2050   77.6040   74.5070 C   0  0  0  0  0  0  0  0  0  0  0  0
   82.3620   78.3740   72.3650 C   0  0  0  0  0  0  0  0  0  0  0  0
   83.3220   74.8620   71.1860 C   0  0  0  0  0  0  0  0  0  0  0  0
   83.7660   74.4840   72.5130 C   0  0  0  0  0  0  0  0  0  0  0  0
   83.7590   75.2880   73.6240 C   0  0  0  0  0  0  0  0  0  0  0  0
   82.7080   76.1030   71.0540 C   0  0  0  0  0  0  0  0  0  0  0  0
   81.9980   80.6230   73.6050 H   0  0  0  0  0  0  0  0  0  0  0  0
   84.4060   81.5060   76.5290 H   0  0  0  0  0  0  0  0  0  0  0  0
   83.3880   74.1590   70.3610 H   0  0  0  0  0  0  0  0  0  0  0  0
   84.2070   73.4990   72.6380 H   0  0  0  0  0  0  0  0  0  0  0  0
   82.3970   76.4750   70.0820 H   0  0  0  0  0  0  0  0  0  0  0  0
   84.1840   77.9100   74.8980 H   0  0  0  0  0  0  0  0  0  0  0  0
   82.5270   77.4460   75.3550 H   0  0  0  0  0  0  0  0  0  0  0  0
   84.3270   75.4790   75.6450 H   0  0  0  0  0  0  0  0  0  0  0  0
   84.5780   73.9260   74.9950 H   0  0  0  0  0  0  0  0  0  0  0  0
   81.2300   79.0020   76.1330 H   0  0  0  0  0  0  0  0  0  0  0  0
   80.2610   79.5840   75.0030 H   0  0  0  0  0  0  0  0  0  0  0  0
   80.2410   80.9900   77.0820 H   0  0  0  0  0  0  0  0  0  0  0  0
   80.8180   82.0530   75.7040 H   0  0  0  0  0  0  0  0  0  0  0  0
  1 20  1  6  0  0  0
  1 11  1  0  0  0  0
  1  4  1  0  0  0  0
  2 21  1  0  0  0  0
  2 10  1  0  0  0  0
  3 15  2  0  0  0  0
  4 29  1  0  0  0  0
  4  7  1  0  0  0  0
  5  1  1  0  0  0  0
  5 14  1  0  0  0  0
  6 11  2  0  0  0  0
  7 10  1  0  0  0  0
  7 31  1  0  0  0  0
  8 28  1  0  0  0  0
  8 27  1  0  0  0  0
 10  9  2  0  0  0  0
 11  2  1  0  0  0  0
 12 15  1  0  0  0  0
 12 13  1  0  0  0  0
 13 18  2  0  0  0  0
 13 14  1  0  0  0  0
 14 25  1  0  0  0  0
 14 26  1  0  0  0  0
 15  5  1  0  0  0  0
 16 17  2  0  0  0  0
 17 23  1  0  0  0  0
 17 18  1  0  0  0  0
 18  8  1  0  0  0  0
 19 16  1  0  0  0  0
 19 12  2  0  0  0  0
 22 16  1  0  0  0  0
 24 19  1  0  0  0  0
 30  4  1  0  0  0  0
 32  7  1  0  0  0  0
M  END
$$$$
