len.pdb
 OpenBabel10072519223D

 32 34  0  0  1  0  0  0  0  0999 V2000
   82.1310   82.4190   75.7020 C   0  0  2  0  0  0  0  0  0  0  0  0
   83.1200   83.7510   77.5020 N   0  0  0  0  0  0  0  0  0  0  0  0
   81.8680   81.1820   72.9580 O   0  0  0  0  0  0  0  0  0  0  0  0
   81.0100   82.1730   76.8050 C   0  0  0  0  0  0  0  0  0  0  0  0
   82.5260   81.0810   75.1910 N   0  0  0  0  0  0  0  0  0  0  0  0
   84.4490   83.1330   75.9580 O   0  0  0  0  0  0  0  0  0  0  0  0
   80.6770   83.3610   77.6930 C   0  0  0  0  0  0  0  0  0  0  0  0
   84.6720   77.5230   76.6320 N   0  0  0  0  0  0  0  0  0  0  0  0
   82.1440   84.1100   79.4910 O   0  0  0  0  0  0  0  0  0  0  0  0
   81.9960   83.8490   78.2930 C   0  0  0  0  0  0  0  0  0  0  0  0
   83.3030   83.1510   76.3730 C   0  0  0  0  0  0  0  0  0  0  0  0
   82.9360   79.2490   73.8060 C   0  0  0  0  0  0  0  0  0  0  0  0
   83.3520   78.9550   75.0930 C   0  0  0  0  0  0  0  0  0  0  0  0
   83.1800   80.0860   76.0910 C   0  0  0  0  0  0  0  0  0  0  0  0
   82.3540   80.6090   73.9150 C   0  0  0  0  0  0  0  0  0  0  0  0
   83.8940   77.1580   72.9760 C   0  0  0  0  0  0  0  0  0  0  0  0
   84.2610   76.8670   74.2950 C   0  0  0  0  0  0  0  0  0  0  0  0
   84.1430   77.8150   75.3810 C   0  0  0  0  0  0  0  0  0  0  0  0
   83.1250   78.3690   72.7040 C   0  0  0  0  0  0  0  0  0  0  0  0
   81.8300   83.0880   74.8850 H   0  0  0  0  0  0  0  0  0  0  0  0
   83.9720   83.9600   78.0090 H   0  0  0  0  0  0  0  0  0  0  0  0
   84.0350   76.3080   72.3150 H   0  0  0  0  0  0  0  0  0  0  0  0
   84.7610   75.9190   74.4690 H   0  0  0  0  0  0  0  0  0  0  0  0
   82.7570   78.6140   71.7120 H   0  0  0  0  0  0  0  0  0  0  0  0
   84.1100   80.5210   76.4770 H   0  0  0  0  0  0  0  0  0  0  0  0
   82.5650   79.6650   76.8970 H   0  0  0  0  0  0  0  0  0  0  0  0
   84.5080   78.1650   77.3960 H   0  0  0  0  0  0  0  0  0  0  0  0
   84.7430   76.5390   76.8550 H   0  0  0  0  0  0  0  0  0  0  0  0
   81.2980   81.2760   77.3690 H   0  0  0  0  0  0  0  0  0  0  0  0
   80.0470   81.9260   76.3390 H   0  0  0  0  0  0  0  0  0  0  0  0
   79.9230   83.1960   78.4730 H   0  0  0  0  0  0  0  0  0  0  0  0
   80.4090   84.2760   77.1480 H   0  0  0  0  0  0  0  0  0  0  0  0
  1 20  1  6  0  0  0
  1 11  1  0  0  0  0
  1  4  1  0  0  0  0
  2 21  1  0  0  0  0
  2 10  1  0  0  0  0
  3 15  2  0  0  0  0
  4 29  1  0  0  0  0
  4  7  1  0  0  0  0
  5  1  1  0  0  0  0
  5 14  1  0  0  0  0
  6 11  2  0  0  0  0
  7 10  1  0  0  0  0
  7 31  1  0  0  0  0
  8 28  1  0  0  0  0
  8 27  1  0  0  0  0
 10  9  2  0  0  0  0
 11  2  1  0  0  0  0
 12 15  1  0  0  0  0
 12 13  1  0  0  0  0
 13 18  2  0  0  0  0
 13 14  1  0  0  0  0
 14 25  1  0  0  0  0
 14 26  1  0  0  0  0
 15  5  1  0  0  0  0
 16 17  2  0  0  0  0
 17 23  1  0  0  0  0
 17 18  1  0  0  0  0
 18  8  1  0  0  0  0
 19 16  1  0  0  0  0
 19 12  2  0  0  0  0
 22 16  1  0  0  0  0
 24 19  1  0  0  0  0
 30  4  1  0  0  0  0
 32  7  1  0  0  0  0
M  END
$$$$
