len.pdb
 OpenBabel10072519043D

 32 34  0  0  1  0  0  0  0  0999 V2000
   81.2180   76.1660   74.8720 C   0  0  2  0  0  0  0  0  0  0  0  0
   81.9060   77.3910   76.9250 N   0  0  0  0  0  0  0  0  0  0  0  0
   80.6810   74.6540   72.2900 O   0  0  0  0  0  0  0  0  0  0  0  0
   79.7960   76.0270   75.5270 C   0  0  0  0  0  0  0  0  0  0  0  0
   81.6500   74.7430   74.4380 N   0  0  0  0  0  0  0  0  0  0  0  0
   83.4280   76.9750   75.3550 O   0  0  0  0  0  0  0  0  0  0  0  0
   79.4910   77.2400   76.5160 C   0  0  0  0  0  0  0  0  0  0  0  0
   83.6780   71.0980   75.9450 N   0  0  0  0  0  0  0  0  0  0  0  0
   80.6150   78.2360   78.4310 O   0  0  0  0  0  0  0  0  0  0  0  0
   80.6740   77.6790   77.3570 C   0  0  0  0  0  0  0  0  0  0  0  0
   82.2860   76.9140   75.7140 C   0  0  0  0  0  0  0  0  0  0  0  0
   81.8800   72.7420   73.1640 C   0  0  0  0  0  0  0  0  0  0  0  0
   82.5130   72.5280   74.4290 C   0  0  0  0  0  0  0  0  0  0  0  0
   82.3550   73.7520   75.3590 C   0  0  0  0  0  0  0  0  0  0  0  0
   81.3080   74.1450   73.1980 C   0  0  0  0  0  0  0  0  0  0  0  0
   82.4380   70.4900   72.4200 C   0  0  0  0  0  0  0  0  0  0  0  0
   83.0420   70.3080   73.7600 C   0  0  0  0  0  0  0  0  0  0  0  0
   83.0410   71.2910   74.7310 C   0  0  0  0  0  0  0  0  0  0  0  0
   81.8570   71.7810   72.1440 C   0  0  0  0  0  0  0  0  0  0  0  0
   81.0130   76.7660   73.9750 H   0  0  0  0  0  0  0  0  0  0  0  0
   82.6290   77.7230   77.5520 H   0  0  0  0  0  0  0  0  0  0  0  0
   82.5570   69.7330   71.6500 H   0  0  0  0  0  0  0  0  0  0  0  0
   83.2840   69.2870   74.0420 H   0  0  0  0  0  0  0  0  0  0  0  0
   81.2420   71.9610   71.2680 H   0  0  0  0  0  0  0  0  0  0  0  0
   83.3140   74.0920   75.7710 H   0  0  0  0  0  0  0  0  0  0  0  0
   81.6570   73.5460   76.1810 H   0  0  0  0  0  0  0  0  0  0  0  0
   83.6940   71.8240   76.6490 H   0  0  0  0  0  0  0  0  0  0  0  0
   83.6780   70.1250   76.2220 H   0  0  0  0  0  0  0  0  0  0  0  0
   79.7440   75.0810   76.0820 H   0  0  0  0  0  0  0  0  0  0  0  0
   79.1110   75.9230   74.6750 H   0  0  0  0  0  0  0  0  0  0  0  0
   78.6580   77.0240   77.1970 H   0  0  0  0  0  0  0  0  0  0  0  0
   79.0790   78.0770   75.9380 H   0  0  0  0  0  0  0  0  0  0  0  0
  1 20  1  6  0  0  0
  1  4  1  0  0  0  0
  1 11  1  0  0  0  0
  2 10  1  0  0  0  0
  2 21  1  0  0  0  0
  3 15  2  0  0  0  0
  4 29  1  0  0  0  0
  4  7  1  0  0  0  0
  5  1  1  0  0  0  0
  5 14  1  0  0  0  0
  6 11  2  0  0  0  0
  7 31  1  0  0  0  0
  7 10  1  0  0  0  0
  8 28  1  0  0  0  0
  8 27  1  0  0  0  0
 10  9  2  0  0  0  0
 11  2  1  0  0  0  0
 12 15  1  0  0  0  0
 12 13  1  0  0  0  0
 13 18  2  0  0  0  0
 13 14  1  0  0  0  0
 14 25  1  0  0  0  0
 14 26  1  0  0  0  0
 15  5  1  0  0  0  0
 16 17  2  0  0  0  0
 17 23  1  0  0  0  0
 17 18  1  0  0  0  0
 18  8  1  0  0  0  0
 19 16  1  0  0  0  0
 19 12  2  0  0  0  0
 22 16  1  0  0  0  0
 24 19  1  0  0  0  0
 30  4  1  0  0  0  0
 32  7  1  0  0  0  0
M  END
$$$$
