len.pdb
 OpenBabel10072518553D

 32 34  0  0  1  0  0  0  0  0999 V2000
   79.3480   73.2500   75.2960 C   0  0  2  0  0  0  0  0  0  0  0  0
   79.9040   74.6160   77.3810 N   0  0  0  0  0  0  0  0  0  0  0  0
   79.3980   71.9060   72.6570 O   0  0  0  0  0  0  0  0  0  0  0  0
   77.9500   73.2730   75.9890 C   0  0  0  0  0  0  0  0  0  0  0  0
   79.7150   71.9090   74.9420 N   0  0  0  0  0  0  0  0  0  0  0  0
   81.5060   74.1020   75.8300 O   0  0  0  0  0  0  0  0  0  0  0  0
   77.5310   74.5560   76.8420 C   0  0  0  0  0  0  0  0  0  0  0  0
   80.5640   68.1540   77.0650 N   0  0  0  0  0  0  0  0  0  0  0  0
   78.5520   75.6550   78.6760 O   0  0  0  0  0  0  0  0  0  0  0  0
   78.6530   75.1420   77.6340 C   0  0  0  0  0  0  0  0  0  0  0  0
   80.3730   74.0150   76.2050 C   0  0  0  0  0  0  0  0  0  0  0  0
   79.6730   69.9090   73.9680 C   0  0  0  0  0  0  0  0  0  0  0  0
   80.0090   69.6770   75.3020 C   0  0  0  0  0  0  0  0  0  0  0  0
   80.2440   71.0300   76.0040 C   0  0  0  0  0  0  0  0  0  0  0  0
   79.6250   71.3550   73.7060 C   0  0  0  0  0  0  0  0  0  0  0  0
   79.2650   67.5020   73.5970 C   0  0  0  0  0  0  0  0  0  0  0  0
   79.6320   67.2060   74.9430 C   0  0  0  0  0  0  0  0  0  0  0  0
   80.0310   68.3520   75.7840 C   0  0  0  0  0  0  0  0  0  0  0  0
   79.2870   68.8800   73.0990 C   0  0  0  0  0  0  0  0  0  0  0  0
   79.1910   73.8750   74.4060 H   0  0  0  0  0  0  0  0  0  0  0  0
   80.6840   74.8550   77.9820 H   0  0  0  0  0  0  0  0  0  0  0  0
   78.9540   66.6650   72.9790 H   0  0  0  0  0  0  0  0  0  0  0  0
   79.7670   66.1820   75.2760 H   0  0  0  0  0  0  0  0  0  0  0  0
   79.0290   69.1330   72.0750 H   0  0  0  0  0  0  0  0  0  0  0  0
   81.3060   71.2940   76.0900 H   0  0  0  0  0  0  0  0  0  0  0  0
   79.6570   71.1850   76.9170 H   0  0  0  0  0  0  0  0  0  0  0  0
   81.0630   68.9270   77.4850 H   0  0  0  0  0  0  0  0  0  0  0  0
   80.8130   67.1920   77.2510 H   0  0  0  0  0  0  0  0  0  0  0  0
   77.7530   72.3500   76.5500 H   0  0  0  0  0  0  0  0  0  0  0  0
   77.1880   73.2500   75.2000 H   0  0  0  0  0  0  0  0  0  0  0  0
   76.6270   74.4630   77.4590 H   0  0  0  0  0  0  0  0  0  0  0  0
   77.2600   75.2830   76.0660 H   0  0  0  0  0  0  0  0  0  0  0  0
  1 20  1  6  0  0  0
  1  4  1  0  0  0  0
  1 11  1  0  0  0  0
  2 10  1  0  0  0  0
  2 21  1  0  0  0  0
  3 15  2  0  0  0  0
  4 29  1  0  0  0  0
  4  7  1  0  0  0  0
  5  1  1  0  0  0  0
  5 14  1  0  0  0  0
  6 11  2  0  0  0  0
  7 31  1  0  0  0  0
  7 10  1  0  0  0  0
  8 28  1  0  0  0  0
  8 27  1  0  0  0  0
 10  9  2  0  0  0  0
 11  2  1  0  0  0  0
 12 13  1  0  0  0  0
 13 18  2  0  0  0  0
 13 14  1  0  0  0  0
 14 25  1  0  0  0  0
 14 26  1  0  0  0  0
 15 12  1  0  0  0  0
 15  5  1  0  0  0  0
 16 17  2  0  0  0  0
 17 23  1  0  0  0  0
 17 18  1  0  0  0  0
 18  8  1  0  0  0  0
 19 16  1  0  0  0  0
 19 12  2  0  0  0  0
 22 16  1  0  0  0  0
 24 19  1  0  0  0  0
 30  4  1  0  0  0  0
 32  7  1  0  0  0  0
M  END
$$$$
