len.pdb
 OpenBabel10072519243D

 32 34  0  0  1  0  0  0  0  0999 V2000
   82.8730   82.9790   74.2150 C   0  0  2  0  0  0  0  0  0  0  0  0
   83.9220   84.4750   75.9130 N   0  0  0  0  0  0  0  0  0  0  0  0
   82.7770   82.0200   71.3450 O   0  0  0  0  0  0  0  0  0  0  0  0
   81.6310   82.9850   75.1440 C   0  0  0  0  0  0  0  0  0  0  0  0
   83.2940   81.6830   73.6110 N   0  0  0  0  0  0  0  0  0  0  0  0
   85.1940   83.7150   74.2930 O   0  0  0  0  0  0  0  0  0  0  0  0
   81.5030   84.2920   76.0060 C   0  0  0  0  0  0  0  0  0  0  0  0
   85.3890   78.0840   74.9580 N   0  0  0  0  0  0  0  0  0  0  0  0
   82.8840   85.4560   77.5480 O   0  0  0  0  0  0  0  0  0  0  0  0
   82.8160   84.8080   76.5320 C   0  0  0  0  0  0  0  0  0  0  0  0
   84.1050   83.7560   74.7990 C   0  0  0  0  0  0  0  0  0  0  0  0
   83.8640   80.0410   72.1940 C   0  0  0  0  0  0  0  0  0  0  0  0
   84.3200   79.6140   73.4060 C   0  0  0  0  0  0  0  0  0  0  0  0
   83.8900   80.5790   74.4990 C   0  0  0  0  0  0  0  0  0  0  0  0
   83.2290   81.3470   72.2970 C   0  0  0  0  0  0  0  0  0  0  0  0
   84.7670   78.0180   71.3320 C   0  0  0  0  0  0  0  0  0  0  0  0
   85.1130   77.5790   72.5900 C   0  0  0  0  0  0  0  0  0  0  0  0
   84.9850   78.4230   73.6710 C   0  0  0  0  0  0  0  0  0  0  0  0
   84.1450   79.2540   71.0640 C   0  0  0  0  0  0  0  0  0  0  0  0
   82.6570   83.6410   73.3660 H   0  0  0  0  0  0  0  0  0  0  0  0
   84.8060   84.8720   76.2090 H   0  0  0  0  0  0  0  0  0  0  0  0
   84.9690   77.4290   70.4430 H   0  0  0  0  0  0  0  0  0  0  0  0
   85.5200   76.5920   72.7910 H   0  0  0  0  0  0  0  0  0  0  0  0
   83.8640   79.5040   70.0450 H   0  0  0  0  0  0  0  0  0  0  0  0
   84.6530   80.9470   75.1960 H   0  0  0  0  0  0  0  0  0  0  0  0
   83.0690   80.1540   75.0900 H   0  0  0  0  0  0  0  0  0  0  0  0
   85.0180   78.5990   75.7450 H   0  0  0  0  0  0  0  0  0  0  0  0
   85.6130   77.1120   75.1260 H   0  0  0  0  0  0  0  0  0  0  0  0
   81.6980   82.2370   75.9450 H   0  0  0  0  0  0  0  0  0  0  0  0
   80.6900   82.7200   74.6450 H   0  0  0  0  0  0  0  0  0  0  0  0
   80.7730   84.1790   76.8180 H   0  0  0  0  0  0  0  0  0  0  0  0
   81.1110   85.1040   75.3810 H   0  0  0  0  0  0  0  0  0  0  0  0
  1 20  1  6  0  0  0
  1 11  1  0  0  0  0
  1  4  1  0  0  0  0
  2 21  1  0  0  0  0
  2 10  1  0  0  0  0
  3 15  2  0  0  0  0
  4 29  1  0  0  0  0
  4  7  1  0  0  0  0
  5  1  1  0  0  0  0
  5 14  1  0  0  0  0
  6 11  2  0  0  0  0
  7 10  1  0  0  0  0
  7 31  1  0  0  0  0
  8 28  1  0  0  0  0
  8 27  1  0  0  0  0
 10  9  2  0  0  0  0
 11  2  1  0  0  0  0
 12 15  1  0  0  0  0
 12 13  1  0  0  0  0
 13 18  2  0  0  0  0
 13 14  1  0  0  0  0
 14 26  1  0  0  0  0
 14 25  1  0  0  0  0
 15  5  1  0  0  0  0
 16 17  2  0  0  0  0
 17 23  1  0  0  0  0
 17 18  1  0  0  0  0
 18  8  1  0  0  0  0
 19 16  1  0  0  0  0
 19 12  2  0  0  0  0
 22 16  1  0  0  0  0
 24 19  1  0  0  0  0
 30  4  1  0  0  0  0
 32  7  1  0  0  0  0
M  END
$$$$
