len.pdb
 OpenBabel10072518593D

 32 34  0  0  1  0  0  0  0  0999 V2000
   79.2320   74.8300   74.5600 C   0  0  2  0  0  0  0  0  0  0  0  0
   80.3650   75.8780   76.5460 N   0  0  0  0  0  0  0  0  0  0  0  0
   78.5790   74.2290   71.7960 O   0  0  0  0  0  0  0  0  0  0  0  0
   77.9620   74.7580   75.4260 C   0  0  0  0  0  0  0  0  0  0  0  0
   79.4690   73.5310   73.8360 N   0  0  0  0  0  0  0  0  0  0  0  0
   81.6280   75.3580   74.8910 O   0  0  0  0  0  0  0  0  0  0  0  0
   77.9200   75.9720   76.3260 C   0  0  0  0  0  0  0  0  0  0  0  0
   81.1900   69.4100   74.2610 N   0  0  0  0  0  0  0  0  0  0  0  0
   79.2430   76.8700   78.1330 O   0  0  0  0  0  0  0  0  0  0  0  0
   79.2160   76.2880   77.0780 C   0  0  0  0  0  0  0  0  0  0  0  0
   80.4950   75.3590   75.3270 C   0  0  0  0  0  0  0  0  0  0  0  0
   79.6480   71.9960   72.1320 C   0  0  0  0  0  0  0  0  0  0  0  0
   80.3080   71.4870   73.1740 C   0  0  0  0  0  0  0  0  0  0  0  0
   80.1500   72.3690   74.4290 C   0  0  0  0  0  0  0  0  0  0  0  0
   79.0920   73.4190   72.4810 C   0  0  0  0  0  0  0  0  0  0  0  0
   80.1810   70.0370   70.8160 C   0  0  0  0  0  0  0  0  0  0  0  0
   80.7970   69.5400   71.9400 C   0  0  0  0  0  0  0  0  0  0  0  0
   80.8350   70.2170   73.1440 C   0  0  0  0  0  0  0  0  0  0  0  0
   79.5490   71.2700   70.8780 C   0  0  0  0  0  0  0  0  0  0  0  0
   78.9750   75.5460   73.7680 H   0  0  0  0  0  0  0  0  0  0  0  0
   81.2050   76.2590   76.9670 H   0  0  0  0  0  0  0  0  0  0  0  0
   80.1720   69.3750   69.9550 H   0  0  0  0  0  0  0  0  0  0  0  0
   81.2740   68.5650   71.9010 H   0  0  0  0  0  0  0  0  0  0  0  0
   79.0760   71.6270   69.9680 H   0  0  0  0  0  0  0  0  0  0  0  0
   81.1090   72.5800   74.9180 H   0  0  0  0  0  0  0  0  0  0  0  0
   79.4950   71.9580   75.2070 H   0  0  0  0  0  0  0  0  0  0  0  0
   80.8720   69.6620   75.1870 H   0  0  0  0  0  0  0  0  0  0  0  0
   81.6310   68.5120   74.1120 H   0  0  0  0  0  0  0  0  0  0  0  0
   78.0600   73.8050   75.9630 H   0  0  0  0  0  0  0  0  0  0  0  0
   77.0790   74.7550   74.7740 H   0  0  0  0  0  0  0  0  0  0  0  0
   77.1500   76.0120   77.1080 H   0  0  0  0  0  0  0  0  0  0  0  0
   77.7260   76.7550   75.5800 H   0  0  0  0  0  0  0  0  0  0  0  0
  1 20  1  6  0  0  0
  1 11  1  0  0  0  0
  1  4  1  0  0  0  0
  2 21  1  0  0  0  0
  2 10  1  0  0  0  0
  3 15  2  0  0  0  0
  4 29  1  0  0  0  0
  4  7  1  0  0  0  0
  5 14  1  0  0  0  0
  5  1  1  0  0  0  0
  6 11  2  0  0  0  0
  7 10  1  0  0  0  0
  7 31  1  0  0  0  0
  8 27  1  0  0  0  0
 10  9  2  0  0  0  0
 11  2  1  0  0  0  0
 12 15  1  0  0  0  0
 12 13  1  0  0  0  0
 13 14  1  0  0  0  0
 14 25  1  0  0  0  0
 14 26  1  0  0  0  0
 15  5  1  0  0  0  0
 16 19  1  0  0  0  0
 16 17  2  0  0  0  0
 17 18  1  0  0  0  0
 18 13  2  0  0  0  0
 18  8  1  0  0  0  0
 19 12  2  0  0  0  0
 22 16  1  0  0  0  0
 23 17  1  0  0  0  0
 24 19  1  0  0  0  0
 28  8  1  0  0  0  0
 30  4  1  0  0  0  0
 32  7  1  0  0  0  0
M  END
$$$$
