len.pdb
 OpenBabel10072519123D

 32 34  0  0  1  0  0  0  0  0999 V2000
   80.3930   76.5040   75.3040 C   0  0  2  0  0  0  0  0  0  0  0  0
   81.4250   77.7470   77.1630 N   0  0  0  0  0  0  0  0  0  0  0  0
   79.7740   75.2150   72.7250 O   0  0  0  0  0  0  0  0  0  0  0  0
   79.1020   76.5350   76.1300 C   0  0  0  0  0  0  0  0  0  0  0  0
   80.5300   75.0700   74.9410 N   0  0  0  0  0  0  0  0  0  0  0  0
   82.7160   77.2150   75.3520 O   0  0  0  0  0  0  0  0  0  0  0  0
   79.0050   77.7720   77.0690 C   0  0  0  0  0  0  0  0  0  0  0  0
   82.0740   71.3010   76.6150 N   0  0  0  0  0  0  0  0  0  0  0  0
   80.3370   78.8290   78.7830 O   0  0  0  0  0  0  0  0  0  0  0  0
   80.2970   78.1980   77.7130 C   0  0  0  0  0  0  0  0  0  0  0  0
   81.6390   77.2500   75.9120 C   0  0  0  0  0  0  0  0  0  0  0  0
   80.8180   73.2070   73.6590 C   0  0  0  0  0  0  0  0  0  0  0  0
   81.1580   72.9180   74.9720 C   0  0  0  0  0  0  0  0  0  0  0  0
   81.0760   74.0580   75.9020 C   0  0  0  0  0  0  0  0  0  0  0  0
   80.2940   74.6160   73.6540 C   0  0  0  0  0  0  0  0  0  0  0  0
   81.4990   71.0000   72.9110 C   0  0  0  0  0  0  0  0  0  0  0  0
   81.8910   70.7260   74.2830 C   0  0  0  0  0  0  0  0  0  0  0  0
   81.7450   71.6760   75.3210 C   0  0  0  0  0  0  0  0  0  0  0  0
   80.9720   72.3160   72.6130 C   0  0  0  0  0  0  0  0  0  0  0  0
   80.1930   77.1430   74.4330 H   0  0  0  0  0  0  0  0  0  0  0  0
   82.2220   78.1810   77.6140 H   0  0  0  0  0  0  0  0  0  0  0  0
   81.6150   70.3180   72.0740 H   0  0  0  0  0  0  0  0  0  0  0  0
   82.1910   69.7320   74.6020 H   0  0  0  0  0  0  0  0  0  0  0  0
   80.6300   72.6350   71.6330 H   0  0  0  0  0  0  0  0  0  0  0  0
   82.0400   74.3700   76.3210 H   0  0  0  0  0  0  0  0  0  0  0  0
   80.4620   73.7700   76.7640 H   0  0  0  0  0  0  0  0  0  0  0  0
   82.1230   72.0070   77.3380 H   0  0  0  0  0  0  0  0  0  0  0  0
   82.4970   70.3890   76.7280 H   0  0  0  0  0  0  0  0  0  0  0  0
   78.9270   75.5960   76.6710 H   0  0  0  0  0  0  0  0  0  0  0  0
   78.2720   76.6810   75.4260 H   0  0  0  0  0  0  0  0  0  0  0  0
   78.2050   77.8030   77.8190 H   0  0  0  0  0  0  0  0  0  0  0  0
   78.8220   78.6440   76.4270 H   0  0  0  0  0  0  0  0  0  0  0  0
  1 20  1  6  0  0  0
  1 11  1  0  0  0  0
  1  4  1  0  0  0  0
  2 21  1  0  0  0  0
  2 10  1  0  0  0  0
  3 15  2  0  0  0  0
  4 29  1  0  0  0  0
  4  7  1  0  0  0  0
  5  1  1  0  0  0  0
  5 14  1  0  0  0  0
  6 11  2  0  0  0  0
  7 10  1  0  0  0  0
  7 31  1  0  0  0  0
  8 28  1  0  0  0  0
  8 27  1  0  0  0  0
 10  9  2  0  0  0  0
 11  2  1  0  0  0  0
 12 13  1  0  0  0  0
 13 18  2  0  0  0  0
 13 14  1  0  0  0  0
 14 25  1  0  0  0  0
 14 26  1  0  0  0  0
 15 12  1  0  0  0  0
 15  5  1  0  0  0  0
 16 17  2  0  0  0  0
 17 23  1  0  0  0  0
 17 18  1  0  0  0  0
 18  8  1  0  0  0  0
 19 16  1  0  0  0  0
 19 12  2  0  0  0  0
 22 16  1  0  0  0  0
 24 19  1  0  0  0  0
 30  4  1  0  0  0  0
 32  7  1  0  0  0  0
M  END
$$$$
