len.pdb
 OpenBabel10072519153D

 32 34  0  0  1  0  0  0  0  0999 V2000
   81.6630   77.6920   75.9650 C   0  0  2  0  0  0  0  0  0  0  0  0
   82.5500   79.2780   77.6900 N   0  0  0  0  0  0  0  0  0  0  0  0
   81.2410   76.1410   73.4240 O   0  0  0  0  0  0  0  0  0  0  0  0
   80.2780   77.7360   76.8460 C   0  0  0  0  0  0  0  0  0  0  0  0
   81.9920   76.2760   75.6630 N   0  0  0  0  0  0  0  0  0  0  0  0
   84.0100   78.2050   76.3970 O   0  0  0  0  0  0  0  0  0  0  0  0
   80.0990   79.0860   77.5000 C   0  0  0  0  0  0  0  0  0  0  0  0
   84.0070   72.8160   77.5790 N   0  0  0  0  0  0  0  0  0  0  0  0
   81.1320   80.0400   79.3130 O   0  0  0  0  0  0  0  0  0  0  0  0
   81.2920   79.5580   78.2400 C   0  0  0  0  0  0  0  0  0  0  0  0
   82.8470   78.4330   76.6760 C   0  0  0  0  0  0  0  0  0  0  0  0
   82.2350   74.1990   74.6400 C   0  0  0  0  0  0  0  0  0  0  0  0
   82.8140   74.0610   75.8610 C   0  0  0  0  0  0  0  0  0  0  0  0
   82.8370   75.3990   76.5910 C   0  0  0  0  0  0  0  0  0  0  0  0
   81.7800   75.6300   74.4180 C   0  0  0  0  0  0  0  0  0  0  0  0
   82.4800   71.8380   74.3320 C   0  0  0  0  0  0  0  0  0  0  0  0
   83.0780   71.6910   75.5900 C   0  0  0  0  0  0  0  0  0  0  0  0
   83.3190   72.8490   76.3540 C   0  0  0  0  0  0  0  0  0  0  0  0
   82.0770   73.0900   73.8470 C   0  0  0  0  0  0  0  0  0  0  0  0
   81.5120   78.1800   74.9930 H   0  0  0  0  0  0  0  0  0  0  0  0
   83.3030   79.5890   78.2920 H   0  0  0  0  0  0  0  0  0  0  0  0
   82.2450   70.9680   73.7250 H   0  0  0  0  0  0  0  0  0  0  0  0
   83.3600   70.7570   76.0670 H   0  0  0  0  0  0  0  0  0  0  0  0
   81.5780   73.0770   72.8820 H   0  0  0  0  0  0  0  0  0  0  0  0
   83.8950   75.6580   76.7220 H   0  0  0  0  0  0  0  0  0  0  0  0
   82.3850   75.2240   77.5750 H   0  0  0  0  0  0  0  0  0  0  0  0
   83.8480   73.4930   78.3130 H   0  0  0  0  0  0  0  0  0  0  0  0
   84.2520   71.9100   77.9540 H   0  0  0  0  0  0  0  0  0  0  0  0
   80.3300   76.8830   77.5360 H   0  0  0  0  0  0  0  0  0  0  0  0
   79.4540   77.4730   76.1710 H   0  0  0  0  0  0  0  0  0  0  0  0
   79.3360   79.1180   78.2890 H   0  0  0  0  0  0  0  0  0  0  0  0
   79.9220   79.8340   76.7160 H   0  0  0  0  0  0  0  0  0  0  0  0
  1 20  1  6  0  0  0
  1 11  1  0  0  0  0
  1  4  1  0  0  0  0
  2 10  1  0  0  0  0
  2 21  1  0  0  0  0
  3 15  2  0  0  0  0
  4  7  1  0  0  0  0
  4 29  1  0  0  0  0
  5  1  1  0  0  0  0
  5 14  1  0  0  0  0
  6 11  2  0  0  0  0
  7 10  1  0  0  0  0
  7 31  1  0  0  0  0
  8 28  1  0  0  0  0
  8 27  1  0  0  0  0
 10  9  2  0  0  0  0
 11  2  1  0  0  0  0
 12 13  1  0  0  0  0
 13 18  2  0  0  0  0
 13 14  1  0  0  0  0
 14 25  1  0  0  0  0
 14 26  1  0  0  0  0
 15 12  1  0  0  0  0
 15  5  1  0  0  0  0
 16 17  2  0  0  0  0
 17 23  1  0  0  0  0
 17 18  1  0  0  0  0
 18  8  1  0  0  0  0
 19 16  1  0  0  0  0
 19 12  2  0  0  0  0
 22 16  1  0  0  0  0
 24 19  1  0  0  0  0
 30  4  1  0  0  0  0
 32  7  1  0  0  0  0
M  END
$$$$
