len.pdb
 OpenBabel10072519213D

 32 34  0  0  1  0  0  0  0  0999 V2000
   81.9600   81.7010   76.0090 C   0  0  2  0  0  0  0  0  0  0  0  0
   82.8320   83.2530   77.7720 N   0  0  0  0  0  0  0  0  0  0  0  0
   81.5560   80.3790   73.3810 O   0  0  0  0  0  0  0  0  0  0  0  0
   80.7300   81.3760   76.8890 C   0  0  0  0  0  0  0  0  0  0  0  0
   82.4380   80.3940   75.5280 N   0  0  0  0  0  0  0  0  0  0  0  0
   84.2200   82.8480   76.1150 O   0  0  0  0  0  0  0  0  0  0  0  0
   80.3800   82.6510   77.6360 C   0  0  0  0  0  0  0  0  0  0  0  0
   84.3420   76.7610   76.9460 N   0  0  0  0  0  0  0  0  0  0  0  0
   81.5010   83.7090   79.5850 O   0  0  0  0  0  0  0  0  0  0  0  0
   81.6300   83.2220   78.4430 C   0  0  0  0  0  0  0  0  0  0  0  0
   83.1260   82.6440   76.6020 C   0  0  0  0  0  0  0  0  0  0  0  0
   82.7260   78.4950   74.1950 C   0  0  0  0  0  0  0  0  0  0  0  0
   83.2260   78.2190   75.4320 C   0  0  0  0  0  0  0  0  0  0  0  0
   83.2060   79.4430   76.3890 C   0  0  0  0  0  0  0  0  0  0  0  0
   82.1710   79.8370   74.2740 C   0  0  0  0  0  0  0  0  0  0  0  0
   82.9590   76.1750   73.5590 C   0  0  0  0  0  0  0  0  0  0  0  0
   83.5080   75.9110   74.7890 C   0  0  0  0  0  0  0  0  0  0  0  0
   83.6810   76.9660   75.7860 C   0  0  0  0  0  0  0  0  0  0  0  0
   82.5830   77.4730   73.2160 C   0  0  0  0  0  0  0  0  0  0  0  0
   81.5270   82.2290   75.1480 H   0  0  0  0  0  0  0  0  0  0  0  0
   83.6570   83.5790   78.2610 H   0  0  0  0  0  0  0  0  0  0  0  0
   82.7610   75.3310   72.9050 H   0  0  0  0  0  0  0  0  0  0  0  0
   83.8440   74.8970   74.9850 H   0  0  0  0  0  0  0  0  0  0  0  0
   81.9990   77.6380   72.3150 H   0  0  0  0  0  0  0  0  0  0  0  0
   84.2190   79.8010   76.6160 H   0  0  0  0  0  0  0  0  0  0  0  0
   82.7440   79.1380   77.3360 H   0  0  0  0  0  0  0  0  0  0  0  0
   84.3670   77.4400   77.6950 H   0  0  0  0  0  0  0  0  0  0  0  0
   85.0270   76.0170   76.9770 H   0  0  0  0  0  0  0  0  0  0  0  0
   80.8640   80.5300   77.5750 H   0  0  0  0  0  0  0  0  0  0  0  0
   79.9320   81.0790   76.1960 H   0  0  0  0  0  0  0  0  0  0  0  0
   79.4570   82.5470   78.2220 H   0  0  0  0  0  0  0  0  0  0  0  0
   80.1030   83.3310   76.8190 H   0  0  0  0  0  0  0  0  0  0  0  0
  1 20  1  6  0  0  0
  1 11  1  0  0  0  0
  1  4  1  0  0  0  0
  2 21  1  0  0  0  0
  2 10  1  0  0  0  0
  3 15  2  0  0  0  0
  4 29  1  0  0  0  0
  4  7  1  0  0  0  0
  5  1  1  0  0  0  0
  5 14  1  0  0  0  0
  6 11  2  0  0  0  0
  7 31  1  0  0  0  0
  7 10  1  0  0  0  0
  8 28  1  0  0  0  0
  8 27  1  0  0  0  0
 10  9  2  0  0  0  0
 11  2  1  0  0  0  0
 12 15  1  0  0  0  0
 12 13  1  0  0  0  0
 13 18  2  0  0  0  0
 13 14  1  0  0  0  0
 14 25  1  0  0  0  0
 14 26  1  0  0  0  0
 15  5  1  0  0  0  0
 16 17  2  0  0  0  0
 17 23  1  0  0  0  0
 17 18  1  0  0  0  0
 18  8  1  0  0  0  0
 19 16  1  0  0  0  0
 19 12  2  0  0  0  0
 22 16  1  0  0  0  0
 24 19  1  0  0  0  0
 30  4  1  0  0  0  0
 32  7  1  0  0  0  0
M  END
$$$$
