len.pdb
 OpenBabel10072519053D

 32 34  0  0  1  0  0  0  0  0999 V2000
   81.3350   75.8970   75.2820 C   0  0  2  0  0  0  0  0  0  0  0  0
   82.2410   77.4540   76.9840 N   0  0  0  0  0  0  0  0  0  0  0  0
   81.0060   74.6600   72.5760 O   0  0  0  0  0  0  0  0  0  0  0  0
   80.1100   75.8400   76.1240 C   0  0  0  0  0  0  0  0  0  0  0  0
   81.5270   74.4440   74.7750 N   0  0  0  0  0  0  0  0  0  0  0  0
   83.6130   76.7250   75.4840 O   0  0  0  0  0  0  0  0  0  0  0  0
   79.8380   77.1890   76.9060 C   0  0  0  0  0  0  0  0  0  0  0  0
   83.1610   70.6820   76.1890 N   0  0  0  0  0  0  0  0  0  0  0  0
   81.0370   78.0810   78.7550 O   0  0  0  0  0  0  0  0  0  0  0  0
   81.0670   77.6180   77.6290 C   0  0  0  0  0  0  0  0  0  0  0  0
   82.5320   76.6000   75.9830 C   0  0  0  0  0  0  0  0  0  0  0  0
   81.6910   72.5910   73.4080 C   0  0  0  0  0  0  0  0  0  0  0  0
   82.1180   72.2000   74.7200 C   0  0  0  0  0  0  0  0  0  0  0  0
   82.2650   73.4170   75.6090 C   0  0  0  0  0  0  0  0  0  0  0  0
   81.3540   74.0120   73.4840 C   0  0  0  0  0  0  0  0  0  0  0  0
   81.7800   70.3530   72.7190 C   0  0  0  0  0  0  0  0  0  0  0  0
   82.4450   69.9800   73.9720 C   0  0  0  0  0  0  0  0  0  0  0  0
   82.5370   70.9320   75.0080 C   0  0  0  0  0  0  0  0  0  0  0  0
   81.3060   71.6840   72.4340 C   0  0  0  0  0  0  0  0  0  0  0  0
   81.0240   76.4490   74.3850 H   0  0  0  0  0  0  0  0  0  0  0  0
   82.9810   77.9430   77.4760 H   0  0  0  0  0  0  0  0  0  0  0  0
   81.6030   69.5800   71.9760 H   0  0  0  0  0  0  0  0  0  0  0  0
   82.7550   68.9610   74.1810 H   0  0  0  0  0  0  0  0  0  0  0  0
   80.7680   71.9430   71.5270 H   0  0  0  0  0  0  0  0  0  0  0  0
   83.3350   73.6560   75.6300 H   0  0  0  0  0  0  0  0  0  0  0  0
   81.9180   73.3840   76.6500 H   0  0  0  0  0  0  0  0  0  0  0  0
   82.8040   71.0830   77.0460 H   0  0  0  0  0  0  0  0  0  0  0  0
   83.7930   69.9030   76.3190 H   0  0  0  0  0  0  0  0  0  0  0  0
   80.1240   74.9620   76.7820 H   0  0  0  0  0  0  0  0  0  0  0  0
   79.2810   75.7380   75.4110 H   0  0  0  0  0  0  0  0  0  0  0  0
   78.9610   77.1270   77.5640 H   0  0  0  0  0  0  0  0  0  0  0  0
   79.6080   77.9550   76.1540 H   0  0  0  0  0  0  0  0  0  0  0  0
  1 20  1  6  0  0  0
  1 11  1  0  0  0  0
  1  4  1  0  0  0  0
  2 21  1  0  0  0  0
  2 10  1  0  0  0  0
  3 15  2  0  0  0  0
  4 29  1  0  0  0  0
  4  7  1  0  0  0  0
  5  1  1  0  0  0  0
  5 14  1  0  0  0  0
  6 11  2  0  0  0  0
  7 31  1  0  0  0  0
  7 10  1  0  0  0  0
  8 28  1  0  0  0  0
  8 27  1  0  0  0  0
 10  9  2  0  0  0  0
 11  2  1  0  0  0  0
 12 15  1  0  0  0  0
 12 13  1  0  0  0  0
 13 18  2  0  0  0  0
 13 14  1  0  0  0  0
 14 25  1  0  0  0  0
 14 26  1  0  0  0  0
 15  5  1  0  0  0  0
 16 17  2  0  0  0  0
 17 23  1  0  0  0  0
 17 18  1  0  0  0  0
 18  8  1  0  0  0  0
 19 16  1  0  0  0  0
 19 12  2  0  0  0  0
 22 16  1  0  0  0  0
 24 19  1  0  0  0  0
 30  4  1  0  0  0  0
 32  7  1  0  0  0  0
M  END
$$$$
