len.pdb
 OpenBabel10072519233D

 32 34  0  0  1  0  0  0  0  0999 V2000
   82.6270   82.5570   74.7480 C   0  0  2  0  0  0  0  0  0  0  0  0
   83.2620   83.7910   76.8400 N   0  0  0  0  0  0  0  0  0  0  0  0
   82.5400   81.4580   72.0090 O   0  0  0  0  0  0  0  0  0  0  0  0
   81.2410   82.4040   75.4560 C   0  0  0  0  0  0  0  0  0  0  0  0
   83.0320   81.1990   74.2280 N   0  0  0  0  0  0  0  0  0  0  0  0
   84.8670   83.2410   75.3690 O   0  0  0  0  0  0  0  0  0  0  0  0
   80.8130   83.6200   76.3470 C   0  0  0  0  0  0  0  0  0  0  0  0
   85.0790   77.4880   75.5910 N   0  0  0  0  0  0  0  0  0  0  0  0
   81.8430   84.5070   78.3450 O   0  0  0  0  0  0  0  0  0  0  0  0
   81.9760   83.9860   77.2460 C   0  0  0  0  0  0  0  0  0  0  0  0
   83.6280   83.2180   75.6410 C   0  0  0  0  0  0  0  0  0  0  0  0
   83.4900   79.3880   72.9110 C   0  0  0  0  0  0  0  0  0  0  0  0
   84.0340   79.0810   74.1580 C   0  0  0  0  0  0  0  0  0  0  0  0
   83.8320   80.2540   75.0980 C   0  0  0  0  0  0  0  0  0  0  0  0
   82.8980   80.7400   72.9430 C   0  0  0  0  0  0  0  0  0  0  0  0
   84.0760   77.2040   72.0340 C   0  0  0  0  0  0  0  0  0  0  0  0
   84.6500   76.8800   73.2640 C   0  0  0  0  0  0  0  0  0  0  0  0
   84.5860   77.8370   74.3550 C   0  0  0  0  0  0  0  0  0  0  0  0
   83.4670   78.4740   71.8410 C   0  0  0  0  0  0  0  0  0  0  0  0
   82.6060   83.3280   73.9660 H   0  0  0  0  0  0  0  0  0  0  0  0
   84.0220   84.0800   77.4450 H   0  0  0  0  0  0  0  0  0  0  0  0
   84.2940   76.5330   71.2080 H   0  0  0  0  0  0  0  0  0  0  0  0
   85.0100   75.8680   73.4270 H   0  0  0  0  0  0  0  0  0  0  0  0
   82.8480   78.6510   70.9660 H   0  0  0  0  0  0  0  0  0  0  0  0
   84.8230   80.5330   75.4770 H   0  0  0  0  0  0  0  0  0  0  0  0
   83.2120   79.9650   75.9560 H   0  0  0  0  0  0  0  0  0  0  0  0
   85.2740   78.2130   76.2680 H   0  0  0  0  0  0  0  0  0  0  0  0
   85.6540   76.6560   75.6040 H   0  0  0  0  0  0  0  0  0  0  0  0
   81.2130   81.5030   76.0820 H   0  0  0  0  0  0  0  0  0  0  0  0
   80.4760   82.2170   74.6910 H   0  0  0  0  0  0  0  0  0  0  0  0
   80.0140   83.3510   77.0510 H   0  0  0  0  0  0  0  0  0  0  0  0
   80.4500   84.5080   75.8120 H   0  0  0  0  0  0  0  0  0  0  0  0
  1 20  1  6  0  0  0
  1  4  1  0  0  0  0
  1 11  1  0  0  0  0
  2 10  1  0  0  0  0
  2 21  1  0  0  0  0
  3 15  2  0  0  0  0
  4 29  1  0  0  0  0
  4  7  1  0  0  0  0
  5  1  1  0  0  0  0
  5 14  1  0  0  0  0
  6 11  2  0  0  0  0
  7 31  1  0  0  0  0
  7 10  1  0  0  0  0
  8 28  1  0  0  0  0
  8 27  1  0  0  0  0
 10  9  2  0  0  0  0
 11  2  1  0  0  0  0
 12 15  1  0  0  0  0
 12 13  1  0  0  0  0
 13 18  2  0  0  0  0
 13 14  1  0  0  0  0
 14 25  1  0  0  0  0
 14 26  1  0  0  0  0
 15  5  1  0  0  0  0
 16 17  2  0  0  0  0
 17 23  1  0  0  0  0
 17 18  1  0  0  0  0
 18  8  1  0  0  0  0
 19 16  1  0  0  0  0
 19 12  2  0  0  0  0
 22 16  1  0  0  0  0
 24 19  1  0  0  0  0
 30  4  1  0  0  0  0
 32  7  1  0  0  0  0
M  END
$$$$
