len.pdb
 OpenBabel10072519213D

 32 34  0  0  1  0  0  0  0  0999 V2000
   82.7350   81.5570   75.0750 C   0  0  2  0  0  0  0  0  0  0  0  0
   83.5400   82.9400   76.9400 N   0  0  0  0  0  0  0  0  0  0  0  0
   82.7030   80.1150   72.5850 O   0  0  0  0  0  0  0  0  0  0  0  0
   81.3930   81.4750   75.8700 C   0  0  0  0  0  0  0  0  0  0  0  0
   83.0950   80.1290   74.8070 N   0  0  0  0  0  0  0  0  0  0  0  0
   84.9880   82.4590   75.3890 O   0  0  0  0  0  0  0  0  0  0  0  0
   81.1670   82.7610   76.6250 C   0  0  0  0  0  0  0  0  0  0  0  0
   85.2740   77.0130   76.7270 N   0  0  0  0  0  0  0  0  0  0  0  0
   82.1690   83.8010   78.4820 O   0  0  0  0  0  0  0  0  0  0  0  0
   82.3250   83.2340   77.4640 C   0  0  0  0  0  0  0  0  0  0  0  0
   83.8330   82.3750   75.7770 C   0  0  0  0  0  0  0  0  0  0  0  0
   83.8660   78.3240   73.6510 C   0  0  0  0  0  0  0  0  0  0  0  0
   84.2450   78.1710   74.9800 C   0  0  0  0  0  0  0  0  0  0  0  0
   83.8320   79.3170   75.8220 C   0  0  0  0  0  0  0  0  0  0  0  0
   83.1910   79.6270   73.5520 C   0  0  0  0  0  0  0  0  0  0  0  0
   85.0760   76.3360   73.1410 C   0  0  0  0  0  0  0  0  0  0  0  0
   85.4730   76.2080   74.4900 C   0  0  0  0  0  0  0  0  0  0  0  0
   85.0210   77.1640   75.4380 C   0  0  0  0  0  0  0  0  0  0  0  0
   84.1880   77.3600   72.6750 C   0  0  0  0  0  0  0  0  0  0  0  0
   82.5830   82.0780   74.1200 H   0  0  0  0  0  0  0  0  0  0  0  0
   84.3580   83.0640   77.5250 H   0  0  0  0  0  0  0  0  0  0  0  0
   85.4860   75.7350   72.3350 H   0  0  0  0  0  0  0  0  0  0  0  0
   86.1650   75.4500   74.8440 H   0  0  0  0  0  0  0  0  0  0  0  0
   84.0050   77.4990   71.6140 H   0  0  0  0  0  0  0  0  0  0  0  0
   84.6980   79.8350   76.2530 H   0  0  0  0  0  0  0  0  0  0  0  0
   83.1840   78.9040   76.6060 H   0  0  0  0  0  0  0  0  0  0  0  0
   84.8190   77.5930   77.4200 H   0  0  0  0  0  0  0  0  0  0  0  0
   85.4640   76.0770   77.0600 H   0  0  0  0  0  0  0  0  0  0  0  0
   81.4730   80.6520   76.5920 H   0  0  0  0  0  0  0  0  0  0  0  0
   80.5200   81.2650   75.2390 H   0  0  0  0  0  0  0  0  0  0  0  0
   80.3160   82.6950   77.3160 H   0  0  0  0  0  0  0  0  0  0  0  0
   80.9440   83.4800   75.8260 H   0  0  0  0  0  0  0  0  0  0  0  0
  1 20  1  6  0  0  0
  1 11  1  0  0  0  0
  1  4  1  0  0  0  0
  2 10  1  0  0  0  0
  2 21  1  0  0  0  0
  3 15  2  0  0  0  0
  4 29  1  0  0  0  0
  4  7  1  0  0  0  0
  5  1  1  0  0  0  0
  5 14  1  0  0  0  0
  6 11  2  0  0  0  0
  7 31  1  0  0  0  0
  7 10  1  0  0  0  0
  8 28  1  0  0  0  0
  8 27  1  0  0  0  0
 10  9  2  0  0  0  0
 11  2  1  0  0  0  0
 12 13  1  0  0  0  0
 13 18  2  0  0  0  0
 13 14  1  0  0  0  0
 14 25  1  0  0  0  0
 14 26  1  0  0  0  0
 15 12  1  0  0  0  0
 15  5  1  0  0  0  0
 16 17  2  0  0  0  0
 17 23  1  0  0  0  0
 17 18  1  0  0  0  0
 18  8  1  0  0  0  0
 19 16  1  0  0  0  0
 19 12  2  0  0  0  0
 22 16  1  0  0  0  0
 24 19  1  0  0  0  0
 30  4  1  0  0  0  0
 32  7  1  0  0  0  0
M  END
$$$$
