len.pdb
 OpenBabel10072519173D

 32 34  0  0  1  0  0  0  0  0999 V2000
   81.4660   78.7870   74.4120 C   0  0  2  0  0  0  0  0  0  0  0  0
   82.3720   80.1630   76.2940 N   0  0  0  0  0  0  0  0  0  0  0  0
   81.5480   77.8040   71.6260 O   0  0  0  0  0  0  0  0  0  0  0  0
   80.3690   78.4430   75.5360 C   0  0  0  0  0  0  0  0  0  0  0  0
   82.0200   77.5010   73.8320 N   0  0  0  0  0  0  0  0  0  0  0  0
   83.6690   79.7170   74.5830 O   0  0  0  0  0  0  0  0  0  0  0  0
   79.9000   79.7230   76.2500 C   0  0  0  0  0  0  0  0  0  0  0  0
   83.8210   73.8420   75.2300 N   0  0  0  0  0  0  0  0  0  0  0  0
   81.0110   81.1180   77.8980 O   0  0  0  0  0  0  0  0  0  0  0  0
   81.1400   80.4620   76.8750 C   0  0  0  0  0  0  0  0  0  0  0  0
   82.6090   79.6220   75.1060 C   0  0  0  0  0  0  0  0  0  0  0  0
   82.5660   75.7270   72.4030 C   0  0  0  0  0  0  0  0  0  0  0  0
   82.9680   75.3770   73.6670 C   0  0  0  0  0  0  0  0  0  0  0  0
   82.7150   76.4930   74.7330 C   0  0  0  0  0  0  0  0  0  0  0  0
   81.9760   77.0660   72.5020 C   0  0  0  0  0  0  0  0  0  0  0  0
   83.2280   73.5440   71.5770 C   0  0  0  0  0  0  0  0  0  0  0  0
   83.5540   73.0930   72.8810 C   0  0  0  0  0  0  0  0  0  0  0  0
   83.4430   74.0820   73.9050 C   0  0  0  0  0  0  0  0  0  0  0  0
   82.6510   74.8400   71.3520 C   0  0  0  0  0  0  0  0  0  0  0  0
   81.1970   79.5240   73.6440 H   0  0  0  0  0  0  0  0  0  0  0  0
   83.2030   80.5630   76.7140 H   0  0  0  0  0  0  0  0  0  0  0  0
   83.2780   72.7990   70.7880 H   0  0  0  0  0  0  0  0  0  0  0  0
   83.9900   72.1060   73.0010 H   0  0  0  0  0  0  0  0  0  0  0  0
   82.2620   75.1240   70.3790 H   0  0  0  0  0  0  0  0  0  0  0  0
   83.6220   76.9400   75.1580 H   0  0  0  0  0  0  0  0  0  0  0  0
   81.9550   76.1260   75.4340 H   0  0  0  0  0  0  0  0  0  0  0  0
   83.6150   74.5570   75.9140 H   0  0  0  0  0  0  0  0  0  0  0  0
   84.1630   72.9260   75.4920 H   0  0  0  0  0  0  0  0  0  0  0  0
   80.7550   77.7740   76.3150 H   0  0  0  0  0  0  0  0  0  0  0  0
   79.4890   77.9720   75.0780 H   0  0  0  0  0  0  0  0  0  0  0  0
   79.2080   79.4690   77.0640 H   0  0  0  0  0  0  0  0  0  0  0  0
   79.3720   80.3730   75.5390 H   0  0  0  0  0  0  0  0  0  0  0  0
  1 20  1  6  0  0  0
  1 11  1  0  0  0  0
  1  4  1  0  0  0  0
  2 21  1  0  0  0  0
  2 10  1  0  0  0  0
  3 15  2  0  0  0  0
  4  7  1  0  0  0  0
  4 29  1  0  0  0  0
  5  1  1  0  0  0  0
  5 14  1  0  0  0  0
  6 11  2  0  0  0  0
  7 10  1  0  0  0  0
  7 31  1  0  0  0  0
  8 28  1  0  0  0  0
  8 27  1  0  0  0  0
 10  9  2  0  0  0  0
 11  2  1  0  0  0  0
 12 15  1  0  0  0  0
 12 13  1  0  0  0  0
 13 18  2  0  0  0  0
 13 14  1  0  0  0  0
 14 25  1  0  0  0  0
 14 26  1  0  0  0  0
 15  5  1  0  0  0  0
 16 17  2  0  0  0  0
 17 23  1  0  0  0  0
 17 18  1  0  0  0  0
 18  8  1  0  0  0  0
 19 16  1  0  0  0  0
 19 12  2  0  0  0  0
 22 16  1  0  0  0  0
 24 19  1  0  0  0  0
 30  4  1  0  0  0  0
 32  7  1  0  0  0  0
M  END
$$$$
