len.pdb
 OpenBabel10072519203D

 32 34  0  0  1  0  0  0  0  0999 V2000
   82.2640   80.8580   76.0050 C   0  0  2  0  0  0  0  0  0  0  0  0
   83.4510   82.1450   77.6970 N   0  0  0  0  0  0  0  0  0  0  0  0
   81.5610   79.9280   73.3080 O   0  0  0  0  0  0  0  0  0  0  0  0
   81.0970   80.8260   77.0100 C   0  0  0  0  0  0  0  0  0  0  0  0
   82.4880   79.5710   75.4100 N   0  0  0  0  0  0  0  0  0  0  0  0
   84.5980   81.4040   75.9560 O   0  0  0  0  0  0  0  0  0  0  0  0
   81.0840   82.0940   77.9320 C   0  0  0  0  0  0  0  0  0  0  0  0
   84.2370   75.7340   76.3530 N   0  0  0  0  0  0  0  0  0  0  0  0
   82.6710   83.3370   79.3090 O   0  0  0  0  0  0  0  0  0  0  0  0
   82.4560   82.6780   78.3380 C   0  0  0  0  0  0  0  0  0  0  0  0
   83.5600   81.4510   76.5520 C   0  0  0  0  0  0  0  0  0  0  0  0
   82.6010   77.8580   73.9300 C   0  0  0  0  0  0  0  0  0  0  0  0
   83.1420   77.4220   75.0840 C   0  0  0  0  0  0  0  0  0  0  0  0
   83.1200   78.4740   76.1340 C   0  0  0  0  0  0  0  0  0  0  0  0
   82.1420   79.2360   74.0750 C   0  0  0  0  0  0  0  0  0  0  0  0
   83.1980   75.6860   72.9080 C   0  0  0  0  0  0  0  0  0  0  0  0
   83.6800   75.2890   74.1540 C   0  0  0  0  0  0  0  0  0  0  0  0
   83.6470   76.1500   75.2280 C   0  0  0  0  0  0  0  0  0  0  0  0
   82.6230   77.0210   72.7680 C   0  0  0  0  0  0  0  0  0  0  0  0
   81.9210   81.5950   75.2660 H   0  0  0  0  0  0  0  0  0  0  0  0
   84.3620   82.3950   78.0620 H   0  0  0  0  0  0  0  0  0  0  0  0
   83.3770   75.0750   72.0280 H   0  0  0  0  0  0  0  0  0  0  0  0
   84.2220   74.3490   74.1230 H   0  0  0  0  0  0  0  0  0  0  0  0
   82.3550   77.3370   71.7640 H   0  0  0  0  0  0  0  0  0  0  0  0
   84.0990   78.9080   76.3730 H   0  0  0  0  0  0  0  0  0  0  0  0
   82.6020   78.1240   77.0360 H   0  0  0  0  0  0  0  0  0  0  0  0
   84.1970   76.3160   77.1800 H   0  0  0  0  0  0  0  0  0  0  0  0
   84.9250   75.0050   76.2160 H   0  0  0  0  0  0  0  0  0  0  0  0
   81.0660   79.9660   77.6920 H   0  0  0  0  0  0  0  0  0  0  0  0
   80.1390   80.9050   76.4790 H   0  0  0  0  0  0  0  0  0  0  0  0
   80.4140   82.0870   78.8020 H   0  0  0  0  0  0  0  0  0  0  0  0
   80.6970   82.9200   77.3220 H   0  0  0  0  0  0  0  0  0  0  0  0
  1 20  1  6  0  0  0
  1 11  1  0  0  0  0
  1  4  1  0  0  0  0
  2 21  1  0  0  0  0
  2 10  1  0  0  0  0
  3 15  2  0  0  0  0
  4 29  1  0  0  0  0
  4  7  1  0  0  0  0
  5  1  1  0  0  0  0
  5 14  1  0  0  0  0
  6 11  2  0  0  0  0
  7 10  1  0  0  0  0
  7 31  1  0  0  0  0
  8 27  1  0  0  0  0
 10  9  2  0  0  0  0
 11  2  1  0  0  0  0
 12 15  1  0  0  0  0
 12 13  1  0  0  0  0
 13 18  2  0  0  0  0
 13 14  1  0  0  0  0
 14 25  1  0  0  0  0
 14 26  1  0  0  0  0
 15  5  1  0  0  0  0
 16 17  2  0  0  0  0
 17 18  1  0  0  0  0
 18  8  1  0  0  0  0
 19 16  1  0  0  0  0
 19 12  2  0  0  0  0
 22 16  1  0  0  0  0
 23 17  1  0  0  0  0
 24 19  1  0  0  0  0
 28  8  1  0  0  0  0
 30  4  1  0  0  0  0
 32  7  1  0  0  0  0
M  END
$$$$
