len.pdb
 OpenBabel10072518573D

 32 34  0  0  1  0  0  0  0  0999 V2000
   79.7990   74.3950   75.2810 C   0  0  2  0  0  0  0  0  0  0  0  0
   80.2980   75.6140   77.3800 N   0  0  0  0  0  0  0  0  0  0  0  0
   79.7600   72.9310   72.7120 O   0  0  0  0  0  0  0  0  0  0  0  0
   78.3600   74.3700   75.7570 C   0  0  0  0  0  0  0  0  0  0  0  0
   80.2380   72.9500   74.9490 N   0  0  0  0  0  0  0  0  0  0  0  0
   81.9390   75.0710   75.9740 O   0  0  0  0  0  0  0  0  0  0  0  0
   77.9840   75.4820   76.7400 C   0  0  0  0  0  0  0  0  0  0  0  0
   81.4350   69.3090   77.0900 N   0  0  0  0  0  0  0  0  0  0  0  0
   78.6360   76.1920   78.8950 O   0  0  0  0  0  0  0  0  0  0  0  0
   79.0150   75.7080   77.8220 C   0  0  0  0  0  0  0  0  0  0  0  0
   80.7490   75.0980   76.2340 C   0  0  0  0  0  0  0  0  0  0  0  0
   80.1580   70.8540   74.0100 C   0  0  0  0  0  0  0  0  0  0  0  0
   80.6540   70.7230   75.3300 C   0  0  0  0  0  0  0  0  0  0  0  0
   80.6650   72.0400   76.0930 C   0  0  0  0  0  0  0  0  0  0  0  0
   80.0030   72.3440   73.7390 C   0  0  0  0  0  0  0  0  0  0  0  0
   80.3840   68.4280   73.5690 C   0  0  0  0  0  0  0  0  0  0  0  0
   80.9020   68.3200   74.8840 C   0  0  0  0  0  0  0  0  0  0  0  0
   81.0080   69.4190   75.7240 C   0  0  0  0  0  0  0  0  0  0  0  0
   80.0550   69.7170   73.1440 C   0  0  0  0  0  0  0  0  0  0  0  0
   79.8280   74.9860   74.3560 H   0  0  0  0  0  0  0  0  0  0  0  0
   81.0010   76.0700   77.9500 H   0  0  0  0  0  0  0  0  0  0  0  0
   80.2560   67.5610   72.9280 H   0  0  0  0  0  0  0  0  0  0  0  0
   81.3310   67.4090   75.2920 H   0  0  0  0  0  0  0  0  0  0  0  0
   79.6840   69.7960   72.1270 H   0  0  0  0  0  0  0  0  0  0  0  0
   81.7160   72.3020   76.2710 H   0  0  0  0  0  0  0  0  0  0  0  0
   80.1030   72.2340   77.0150 H   0  0  0  0  0  0  0  0  0  0  0  0
   81.2650   69.9780   77.8290 H   0  0  0  0  0  0  0  0  0  0  0  0
   81.6900   68.4140   77.4860 H   0  0  0  0  0  0  0  0  0  0  0  0
   78.1940   73.3660   76.1700 H   0  0  0  0  0  0  0  0  0  0  0  0
   77.6100   74.2670   74.9610 H   0  0  0  0  0  0  0  0  0  0  0  0
   77.0510   75.3370   77.3000 H   0  0  0  0  0  0  0  0  0  0  0  0
   77.8300   76.4390   76.2240 H   0  0  0  0  0  0  0  0  0  0  0  0
  1 20  1  6  0  0  0
  1  4  1  0  0  0  0
  1 11  1  0  0  0  0
  2 10  1  0  0  0  0
  2 21  1  0  0  0  0
  3 15  2  0  0  0  0
  4 29  1  0  0  0  0
  4  7  1  0  0  0  0
  5  1  1  0  0  0  0
  5 14  1  0  0  0  0
  6 11  2  0  0  0  0
  7 31  1  0  0  0  0
  7 10  1  0  0  0  0
  8 28  1  0  0  0  0
  8 27  1  0  0  0  0
 10  9  2  0  0  0  0
 11  2  1  0  0  0  0
 12 13  1  0  0  0  0
 13 18  2  0  0  0  0
 13 14  1  0  0  0  0
 14 25  1  0  0  0  0
 14 26  1  0  0  0  0
 15 12  1  0  0  0  0
 15  5  1  0  0  0  0
 16 17  2  0  0  0  0
 17 23  1  0  0  0  0
 17 18  1  0  0  0  0
 18  8  1  0  0  0  0
 19 16  1  0  0  0  0
 19 12  2  0  0  0  0
 22 16  1  0  0  0  0
 24 19  1  0  0  0  0
 30  4  1  0  0  0  0
 32  7  1  0  0  0  0
M  END
$$$$
