len_eq.pdb
 OpenBabel10072517173D

 32 34  0  0  1  0  0  0  0  0999 V2000
   77.1810   45.0520   55.2410 C   0  0  1  0  0  0  0  0  0  0  0  0
   77.6840   46.0380   56.2260 C   0  0  0  0  0  0  0  0  0  0  0  0
   78.8650   46.7370   55.6150 C   0  0  0  0  0  0  0  0  0  0  0  0
   79.9380   45.7390   55.2970 C   0  0  0  0  0  0  0  0  0  0  0  0
   79.5920   44.4550   54.8720 N   0  0  0  0  0  0  0  0  0  0  0  0
   78.3000   44.0990   54.5970 C   0  0  0  0  0  0  0  0  0  0  0  0
   74.2080   43.1600   56.4580 C   0  0  0  0  0  0  0  0  0  0  0  0
   75.1320   42.6940   57.3480 C   0  0  0  0  0  0  0  0  0  0  0  0
   76.4300   43.4390   57.1370 C   0  0  0  0  0  0  0  0  0  0  0  0
   76.1640   44.2530   55.8880 N   0  0  0  0  0  0  0  0  0  0  0  0
   74.8540   44.0690   55.4200 C   0  0  0  0  0  0  0  0  0  0  0  0
   72.5270   41.7830   57.5000 C   0  0  0  0  0  0  0  0  0  0  0  0
   73.4520   41.3310   58.3780 C   0  0  0  0  0  0  0  0  0  0  0  0
   74.7590   41.8460   58.4000 C   0  0  0  0  0  0  0  0  0  0  0  0
   72.8810   42.6690   56.4640 C   0  0  0  0  0  0  0  0  0  0  0  0
   74.4210   44.5070   54.3740 O   0  0  0  0  0  0  0  0  0  0  0  0
   75.6970   41.5590   59.4410 N   0  0  0  0  0  0  0  0  0  0  0  0
   78.0150   43.1280   53.9700 O   0  0  0  0  0  0  0  0  0  0  0  0
   81.1220   45.8710   55.5470 O   0  0  0  0  0  0  0  0  0  0  0  0
   76.6100   45.5390   54.4410 H   0  0  0  0  0  0  0  0  0  0  0  0
   80.3470   43.7820   54.8250 H   0  0  0  0  0  0  0  0  0  0  0  0
   71.4930   41.4780   57.6270 H   0  0  0  0  0  0  0  0  0  0  0  0
   73.1210   40.6960   59.1950 H   0  0  0  0  0  0  0  0  0  0  0  0
   72.1700   42.9120   55.6800 H   0  0  0  0  0  0  0  0  0  0  0  0
   77.3250   42.8240   56.9840 H   0  0  0  0  0  0  0  0  0  0  0  0
   76.6460   44.0860   57.9950 H   0  0  0  0  0  0  0  0  0  0  0  0
   76.6440   41.9010   59.3380 H   0  0  0  0  0  0  0  0  0  0  0  0
   75.4730   40.7610   60.0210 H   0  0  0  0  0  0  0  0  0  0  0  0
   77.9720   45.5440   57.1610 H   0  0  0  0  0  0  0  0  0  0  0  0
   76.9660   46.7940   56.5640 H   0  0  0  0  0  0  0  0  0  0  0  0
   79.3380   47.5490   56.1800 H   0  0  0  0  0  0  0  0  0  0  0  0
   78.4250   47.0630   54.6650 H   0  0  0  0  0  0  0  0  0  0  0  0
  1 20  1  6  0  0  0
  1 10  1  0  0  0  0
  1  2  1  0  0  0  0
  2 30  1  0  0  0  0
  2 29  1  0  0  0  0
  3 31  1  0  0  0  0
  3  2  1  0  0  0  0
  4 19  2  0  0  0  0
  4  3  1  0  0  0  0
  5  4  1  0  0  0  0
  6  5  1  0  0  0  0
  6  1  1  0  0  0  0
  7 15  2  0  0  0  0
  7  8  1  0  0  0  0
  8 14  2  0  0  0  0
  9  8  1  0  0  0  0
  9 26  1  0  0  0  0
 10  9  1  0  0  0  0
 11 10  1  0  0  0  0
 11  7  1  0  0  0  0
 12 22  1  0  0  0  0
 12 13  2  0  0  0  0
 13 14  1  0  0  0  0
 13 23  1  0  0  0  0
 14 17  1  0  0  0  0
 15 12  1  0  0  0  0
 16 11  2  0  0  0  0
 17 28  1  0  0  0  0
 18  6  2  0  0  0  0
 21  5  1  0  0  0  0
 24 15  1  0  0  0  0
 25  9  1  0  0  0  0
 27 17  1  0  0  0  0
 32  3  1  0  0  0  0
M  END
$$$$
