len.pdb
 OpenBabel10072519073D

 32 34  0  0  1  0  0  0  0  0999 V2000
   81.1730   75.5300   75.2530 C   0  0  2  0  0  0  0  0  0  0  0  0
   82.0630   76.7820   77.2640 N   0  0  0  0  0  0  0  0  0  0  0  0
   80.8150   74.5300   72.5210 O   0  0  0  0  0  0  0  0  0  0  0  0
   79.8950   75.4380   76.1310 C   0  0  0  0  0  0  0  0  0  0  0  0
   81.4690   74.2250   74.7340 N   0  0  0  0  0  0  0  0  0  0  0  0
   83.4770   76.1680   75.7030 O   0  0  0  0  0  0  0  0  0  0  0  0
   79.7000   76.7900   76.8800 C   0  0  0  0  0  0  0  0  0  0  0  0
   83.0670   70.4300   76.0440 N   0  0  0  0  0  0  0  0  0  0  0  0
   80.8400   77.8420   78.7540 O   0  0  0  0  0  0  0  0  0  0  0  0
   80.8770   77.2340   77.7100 C   0  0  0  0  0  0  0  0  0  0  0  0
   82.3670   76.2050   76.1000 C   0  0  0  0  0  0  0  0  0  0  0  0
   81.7230   72.4480   73.4040 C   0  0  0  0  0  0  0  0  0  0  0  0
   82.1120   72.0000   74.6590 C   0  0  0  0  0  0  0  0  0  0  0  0
   81.9150   73.1280   75.6790 C   0  0  0  0  0  0  0  0  0  0  0  0
   81.2850   73.8330   73.4360 C   0  0  0  0  0  0  0  0  0  0  0  0
   82.1450   70.1850   72.4710 C   0  0  0  0  0  0  0  0  0  0  0  0
   82.6060   69.7150   73.7300 C   0  0  0  0  0  0  0  0  0  0  0  0
   82.5840   70.6810   74.8210 C   0  0  0  0  0  0  0  0  0  0  0  0
   81.6470   71.4940   72.3460 C   0  0  0  0  0  0  0  0  0  0  0  0
   81.0560   76.2530   74.4350 H   0  0  0  0  0  0  0  0  0  0  0  0
   82.7790   76.9280   77.9650 H   0  0  0  0  0  0  0  0  0  0  0  0
   82.2000   69.5260   71.6100 H   0  0  0  0  0  0  0  0  0  0  0  0
   83.0420   68.7200   73.7350 H   0  0  0  0  0  0  0  0  0  0  0  0
   81.1850   71.7520   71.3980 H   0  0  0  0  0  0  0  0  0  0  0  0
   82.9000   73.1920   76.1570 H   0  0  0  0  0  0  0  0  0  0  0  0
   81.1740   72.8270   76.4310 H   0  0  0  0  0  0  0  0  0  0  0  0
   82.7830   70.9630   76.8550 H   0  0  0  0  0  0  0  0  0  0  0  0
   83.4290   69.5210   76.3010 H   0  0  0  0  0  0  0  0  0  0  0  0
   79.9180   74.6140   76.8560 H   0  0  0  0  0  0  0  0  0  0  0  0
   79.0170   75.3480   75.4790 H   0  0  0  0  0  0  0  0  0  0  0  0
   78.7940   76.7310   77.4980 H   0  0  0  0  0  0  0  0  0  0  0  0
   79.5140   77.5620   76.1220 H   0  0  0  0  0  0  0  0  0  0  0  0
  1 20  1  6  0  0  0
  1 11  1  0  0  0  0
  1  4  1  0  0  0  0
  2 10  1  0  0  0  0
  2 21  1  0  0  0  0
  3 15  2  0  0  0  0
  4 29  1  0  0  0  0
  4  7  1  0  0  0  0
  5  1  1  0  0  0  0
  5 14  1  0  0  0  0
  6 11  2  0  0  0  0
  7 31  1  0  0  0  0
  7 10  1  0  0  0  0
  8 28  1  0  0  0  0
  8 27  1  0  0  0  0
 10  9  2  0  0  0  0
 11  2  1  0  0  0  0
 12 15  1  0  0  0  0
 12 13  1  0  0  0  0
 13 18  2  0  0  0  0
 13 14  1  0  0  0  0
 14 25  1  0  0  0  0
 14 26  1  0  0  0  0
 15  5  1  0  0  0  0
 16 17  2  0  0  0  0
 17 23  1  0  0  0  0
 17 18  1  0  0  0  0
 18  8  1  0  0  0  0
 19 16  1  0  0  0  0
 19 12  2  0  0  0  0
 22 16  1  0  0  0  0
 24 19  1  0  0  0  0
 30  4  1  0  0  0  0
 32  7  1  0  0  0  0
M  END
$$$$
