len.pdb
 OpenBabel10072519193D

 32 34  0  0  1  0  0  0  0  0999 V2000
   82.2730   80.4140   75.7220 C   0  0  2  0  0  0  0  0  0  0  0  0
   83.4430   82.0620   77.1250 N   0  0  0  0  0  0  0  0  0  0  0  0
   81.7540   79.5200   72.8400 O   0  0  0  0  0  0  0  0  0  0  0  0
   81.2610   80.3060   76.8910 C   0  0  0  0  0  0  0  0  0  0  0  0
   82.5890   79.1230   75.0410 N   0  0  0  0  0  0  0  0  0  0  0  0
   84.4530   81.2350   75.2490 O   0  0  0  0  0  0  0  0  0  0  0  0
   81.0390   81.6400   77.6110 C   0  0  0  0  0  0  0  0  0  0  0  0
   84.5300   75.4540   76.0810 N   0  0  0  0  0  0  0  0  0  0  0  0
   82.5270   82.8500   78.9800 O   0  0  0  0  0  0  0  0  0  0  0  0
   82.3910   82.2520   77.9610 C   0  0  0  0  0  0  0  0  0  0  0  0
   83.5150   81.2700   76.0330 C   0  0  0  0  0  0  0  0  0  0  0  0
   82.8470   77.4280   73.5100 C   0  0  0  0  0  0  0  0  0  0  0  0
   83.4630   77.0290   74.7100 C   0  0  0  0  0  0  0  0  0  0  0  0
   83.3770   78.1040   75.7810 C   0  0  0  0  0  0  0  0  0  0  0  0
   82.3660   78.7860   73.6700 C   0  0  0  0  0  0  0  0  0  0  0  0
   83.6590   75.3150   72.5580 C   0  0  0  0  0  0  0  0  0  0  0  0
   84.1630   74.9590   73.7740 C   0  0  0  0  0  0  0  0  0  0  0  0
   84.0130   75.7600   74.8960 C   0  0  0  0  0  0  0  0  0  0  0  0
   82.9010   76.5350   72.4300 C   0  0  0  0  0  0  0  0  0  0  0  0
   81.7140   80.9890   74.9720 H   0  0  0  0  0  0  0  0  0  0  0  0
   84.2400   82.6430   77.3590 H   0  0  0  0  0  0  0  0  0  0  0  0
   83.8430   74.6770   71.6980 H   0  0  0  0  0  0  0  0  0  0  0  0
   84.6820   74.0060   73.7870 H   0  0  0  0  0  0  0  0  0  0  0  0
   82.4190   76.7340   71.4770 H   0  0  0  0  0  0  0  0  0  0  0  0
   84.4030   78.3960   76.0370 H   0  0  0  0  0  0  0  0  0  0  0  0
   82.8810   77.7980   76.7100 H   0  0  0  0  0  0  0  0  0  0  0  0
   84.3650   76.0420   76.8870 H   0  0  0  0  0  0  0  0  0  0  0  0
   84.8490   74.5070   76.2350 H   0  0  0  0  0  0  0  0  0  0  0  0
   81.7190   79.6950   77.6790 H   0  0  0  0  0  0  0  0  0  0  0  0
   80.3080   79.7910   76.7140 H   0  0  0  0  0  0  0  0  0  0  0  0
   80.4040   81.5220   78.4990 H   0  0  0  0  0  0  0  0  0  0  0  0
   80.5820   82.2840   76.8480 H   0  0  0  0  0  0  0  0  0  0  0  0
  1 20  1  6  0  0  0
  1 11  1  0  0  0  0
  1  4  1  0  0  0  0
  2 21  1  0  0  0  0
  2 10  1  0  0  0  0
  3 15  2  0  0  0  0
  4  7  1  0  0  0  0
  4 29  1  0  0  0  0
  5  1  1  0  0  0  0
  5 14  1  0  0  0  0
  6 11  2  0  0  0  0
  7 10  1  0  0  0  0
  7 31  1  0  0  0  0
  8 28  1  0  0  0  0
  8 27  1  0  0  0  0
 10  9  2  0  0  0  0
 11  2  1  0  0  0  0
 12 15  1  0  0  0  0
 12 13  1  0  0  0  0
 13 18  2  0  0  0  0
 13 14  1  0  0  0  0
 14 25  1  0  0  0  0
 14 26  1  0  0  0  0
 15  5  1  0  0  0  0
 16 17  2  0  0  0  0
 17 23  1  0  0  0  0
 17 18  1  0  0  0  0
 18  8  1  0  0  0  0
 19 16  1  0  0  0  0
 19 12  2  0  0  0  0
 22 16  1  0  0  0  0
 24 19  1  0  0  0  0
 30  4  1  0  0  0  0
 32  7  1  0  0  0  0
M  END
$$$$
