len.pdb
 OpenBabel10072519253D

 32 34  0  0  1  0  0  0  0  0999 V2000
   81.7070   83.6330   73.9940 C   0  0  2  0  0  0  0  0  0  0  0  0
   82.5490   84.8970   75.8700 N   0  0  0  0  0  0  0  0  0  0  0  0
   81.1970   82.4730   71.2540 O   0  0  0  0  0  0  0  0  0  0  0  0
   80.3270   83.6540   74.6090 C   0  0  0  0  0  0  0  0  0  0  0  0
   82.0520   82.2660   73.4120 N   0  0  0  0  0  0  0  0  0  0  0  0
   84.0630   84.0300   74.5060 O   0  0  0  0  0  0  0  0  0  0  0  0
   80.1030   84.8890   75.6190 C   0  0  0  0  0  0  0  0  0  0  0  0
   83.8230   78.4620   74.5100 N   0  0  0  0  0  0  0  0  0  0  0  0
   81.2030   85.5370   77.5420 O   0  0  0  0  0  0  0  0  0  0  0  0
   81.3470   85.1790   76.3760 C   0  0  0  0  0  0  0  0  0  0  0  0
   82.8690   84.1690   74.8200 C   0  0  0  0  0  0  0  0  0  0  0  0
   82.1530   80.4210   72.0290 C   0  0  0  0  0  0  0  0  0  0  0  0
   82.7750   80.0880   73.1930 C   0  0  0  0  0  0  0  0  0  0  0  0
   82.7350   81.2330   74.1910 C   0  0  0  0  0  0  0  0  0  0  0  0
   81.6600   81.7970   72.1810 C   0  0  0  0  0  0  0  0  0  0  0  0
   82.6370   78.3130   70.9750 C   0  0  0  0  0  0  0  0  0  0  0  0
   83.2260   77.9170   72.1900 C   0  0  0  0  0  0  0  0  0  0  0  0
   83.2660   78.7330   73.2890 C   0  0  0  0  0  0  0  0  0  0  0  0
   82.0860   79.6130   70.8840 C   0  0  0  0  0  0  0  0  0  0  0  0
   81.6780   84.3630   73.1740 H   0  0  0  0  0  0  0  0  0  0  0  0
   83.3530   85.2350   76.3850 H   0  0  0  0  0  0  0  0  0  0  0  0
   82.5350   77.5830   70.1770 H   0  0  0  0  0  0  0  0  0  0  0  0
   83.7310   76.9560   72.1460 H   0  0  0  0  0  0  0  0  0  0  0  0
   81.8950   79.9710   69.8770 H   0  0  0  0  0  0  0  0  0  0  0  0
   83.7360   81.6080   74.4400 H   0  0  0  0  0  0  0  0  0  0  0  0
   82.0670   80.9770   75.0230 H   0  0  0  0  0  0  0  0  0  0  0  0
   83.8980   79.1440   75.2530 H   0  0  0  0  0  0  0  0  0  0  0  0
   84.3460   77.6010   74.6080 H   0  0  0  0  0  0  0  0  0  0  0  0
   80.1140   82.6620   75.0290 H   0  0  0  0  0  0  0  0  0  0  0  0
   79.5650   83.7250   73.8220 H   0  0  0  0  0  0  0  0  0  0  0  0
   79.2000   84.8110   76.2370 H   0  0  0  0  0  0  0  0  0  0  0  0
   79.8940   85.7380   74.9550 H   0  0  0  0  0  0  0  0  0  0  0  0
  1 20  1  6  0  0  0
  1  4  1  0  0  0  0
  1 11  1  0  0  0  0
  2 10  1  0  0  0  0
  2 21  1  0  0  0  0
  3 15  2  0  0  0  0
  4 29  1  0  0  0  0
  4  7  1  0  0  0  0
  5  1  1  0  0  0  0
  5 14  1  0  0  0  0
  6 11  2  0  0  0  0
  7 31  1  0  0  0  0
  7 10  1  0  0  0  0
  8 28  1  0  0  0  0
  8 27  1  0  0  0  0
 10  9  2  0  0  0  0
 11  2  1  0  0  0  0
 12 15  1  0  0  0  0
 12 13  1  0  0  0  0
 13 18  2  0  0  0  0
 13 14  1  0  0  0  0
 14 25  1  0  0  0  0
 14 26  1  0  0  0  0
 15  5  1  0  0  0  0
 16 17  2  0  0  0  0
 17 18  1  0  0  0  0
 18  8  1  0  0  0  0
 19 16  1  0  0  0  0
 19 12  2  0  0  0  0
 22 16  1  0  0  0  0
 23 17  1  0  0  0  0
 24 19  1  0  0  0  0
 30  4  1  0  0  0  0
 32  7  1  0  0  0  0
M  END
$$$$
